2016-11-02T01:36:34.767Z     1         73 dns:www.datatang.com P http://www.datatang.com/data/list/r020-p2 text/dns #002 20161102013634628+116 sha1:GIA3V2FIROSECFFE3PKPYMMPHMT3DYDI - -
2016-11-02T01:36:38.008Z   200        160 http://www.datatang.com/robots.txt P http://www.datatang.com/data/list/r020-p2 text/plain #002 20161102013637782+218 sha1:EPVTLC73ELWTCXUW7QKLGOKLV5EQSM2N - -
2016-11-02T01:36:41.343Z   200      21262 http://www.datatang.com/data/list/r020-p2 - - text/html #002 20161102013641010+204 sha1:7VKZVA2XQ4M66G6IZP53CGWSQLFAAJZA - 3t
2016-11-02T01:36:44.445Z   200      32066 http://www.datatang.com/data/47237 L http://www.datatang.com/data/list/r020-p2 text/html #002 20161102013644346+65 sha1:HSKCAF3UU73GSX7AQQRSYXQFD2LOHG4L - -
2016-11-02T01:36:47.701Z   200      29304 http://www.datatang.com/data/47236 L http://www.datatang.com/data/list/r020-p2 text/html #002 20161102013647449+184 sha1:RUTZ4EF6NRRDXXI574RCXFHD4XP5MI2K - -
2016-11-02T01:36:50.885Z   200      25635 http://www.datatang.com/data/47239 L http://www.datatang.com/data/list/r020-p2 text/html #002 20161102013650704+137 sha1:PSHOWJKQNXDFUAWB23I5NQIOUL3FAKQZ - -
2016-11-02T01:36:54.075Z   200      26347 http://www.datatang.com/data/47238 L http://www.datatang.com/data/list/r020-p2 text/html #002 20161102013653890+123 sha1:AZX5XDD4TOQ5F5EPH6ZQZ5QHO3PK7PYG - -
2016-11-02T01:36:57.279Z   200      43162 http://www.datatang.com/data/47233 L http://www.datatang.com/data/list/r020-p2 text/html #002 20161102013657082+151 sha1:GA45Q3NH6DX33R6OIB4S7HIXYCUL2W56 - -
2016-11-02T01:37:00.448Z   200      24693 http://www.datatang.com/data/47234 L http://www.datatang.com/data/list/r020-p2 text/html #002 20161102013700283+89 sha1:3XJSBYDUO7VDX5RJBMZJWUS6RU52HHYH - -
2016-11-02T01:37:03.611Z   200      14185 http://www.datatang.com/data/list/r020-p4499 L http://www.datatang.com/data/list/r020-p2 text/html #002 20161102013703449+112 sha1:DM2XDE57TZ6C3MHM3HZ5CHFUJYIUO7PM - -
2016-11-02T01:37:06.865Z   200      20654 http://www.datatang.com/data/list/r020-p4 L http://www.datatang.com/data/list/r020-p2 text/html #002 20161102013706615+184 sha1:6HNSR3O5JPIEE4OUE7FV7KTJFGTT2ID5 - -
2016-11-02T01:37:10.118Z   200      21726 http://www.datatang.com/data/list/r020-p5 L http://www.datatang.com/data/list/r020-p2 text/html #002 20161102013709869+188 sha1:KZL5HLIM6RUO26GXECGU72YZGR4IQSLA - -
2016-11-02T01:37:13.385Z   200      20700 http://www.datatang.com/data/list/r020-p3 L http://www.datatang.com/data/list/r020-p2 text/html #002 20161102013713120+196 sha1:Q26TY7PMVQJ5OFZFAJJJ7FU7MMYNN3AW - -
2016-11-02T01:37:16.633Z   200      20580 http://www.datatang.com/data/list/r020-p1 L http://www.datatang.com/data/list/r020-p2 text/html #002 20161102013716388+207 sha1:DPMBMVVXQDJ76ZUSQWMPMP3HKPGZQQBE - -
2016-11-02T01:37:19.873Z   200      20174 http://www.datatang.com/data/list/r020-p8 L http://www.datatang.com/data/list/r020-p2 text/html #002 20161102013719636+178 sha1:OYQ7NIPQQ4MJJXD5RJ6R4H6LQ5HYHAOV - -
2016-11-02T01:37:23.039Z   200      21976 http://www.datatang.com/data/list/r020-p9 L http://www.datatang.com/data/list/r020-p2 text/html #002 20161102013722875+145 sha1:KLMPJZ7PSTJPN5DHGVUZYMWXOPP3WK4J - -
2016-11-02T01:37:26.301Z   200      21216 http://www.datatang.com/data/list/r020-p6 L http://www.datatang.com/data/list/r020-p2 text/html #002 20161102013726041+204 sha1:SJ7PYTAWQRTTS72TTJON2MKLPRGBHLLS - -
2016-11-02T01:37:29.553Z   200      19768 http://www.datatang.com/data/list/r020-p7 L http://www.datatang.com/data/list/r020-p2 text/html #002 20161102013729305+183 sha1:SX3SVBX4ZVYPII2VWA3FGKVYFKGARH36 - -
2016-11-02T01:37:32.862Z   200      26003 http://www.datatang.com/data/47241 L http://www.datatang.com/data/list/r020-p2 text/html #002 20161102013732555+260 sha1:YS7565LHVYVAPQTMCNXII3HRV773AABB - -
2016-11-02T01:37:36.091Z   200      25042 http://www.datatang.com/data/47242 L http://www.datatang.com/data/list/r020-p2 text/html #002 20161102013735864+196 sha1:PH47R6YLLNTFEDO4XPE56YZ2DDEL5VYK - -
2016-11-02T01:37:39.229Z   200      24716 http://www.datatang.com/data/47244 L http://www.datatang.com/data/list/r020-p2 text/html #002 20161102013739094+117 sha1:POLZ2PKI4ZBIRO5R6XOC2DA64J7QAAIN - -
2016-11-02T01:37:42.411Z   200      22345 http://www.datatang.com/data/list/r020-p10 L http://www.datatang.com/data/list/r020-p2 text/html #002 20161102013742230+132 sha1:5VNVTI4FVMTXUOYFCNFSWPJSOY7BMFHJ - -
2016-11-02T01:37:45.564Z   200      28766 http://www.datatang.com/data/47228 L http://www.datatang.com/data/list/r020-p2 text/html #002 20161102013745413+104 sha1:KWXDDUHMYLTNR4EEI4YOBPHTAGKLDMDW - -
2016-11-02T01:37:48.939Z   200      32535 http://www.datatang.com/data/46337 LL http://www.datatang.com/data/47237 text/html #002 20161102013748567+322 sha1:VYQFFPWFJUVHWCB4ZFOMJY2J3PYIIUCT - -
2016-11-02T01:37:52.320Z   200      31951 http://www.datatang.com/data/37284 LL http://www.datatang.com/data/47237 text/html #002 20161102013751943+339 sha1:WDWWD7X4DZNQSAFAQDIWM6CBY7LZMSYN - -
2016-11-02T01:37:55.582Z   200      27808 http://www.datatang.com/data/888 LL http://www.datatang.com/data/47237 text/html #002 20161102013755322+242 sha1:6R5EMACTHVFAC4OUE7SW54RDC3X27LMR - -
2016-11-02T01:37:58.866Z   200      31345 http://www.datatang.com/data/507 LL http://www.datatang.com/data/list/r020-p4499 text/html #002 20161102013758584+174 sha1:AFR3VMYOICNSIPJWPEUYEQJRAH2FFGGN - -
2016-11-02T01:38:01.985Z   200      31097 http://www.datatang.com/data/508 LL http://www.datatang.com/data/list/r020-p4499 text/html #002 20161102013801869+66 sha1:BELIFMVM23HKBMUR6FQ5HAK2MPQCF3A2 - -
2016-11-02T01:38:05.167Z   200      19600 http://www.datatang.com/data/list/r020-p4497 LL http://www.datatang.com/data/list/r020-p4499 text/html #002 20161102013804988+126 sha1:MSGY5PBSBUZYFWZO45EK2BJ67FM5FKLT - -
2016-11-02T01:38:08.306Z   200      19867 http://www.datatang.com/data/list/r020-p4498 LL http://www.datatang.com/data/list/r020-p4499 text/html #002 20161102013808168+102 sha1:I67GSZ26EMMDSM4X7XOGHRJVWKKVBH3S - -
2016-11-02T01:38:11.494Z   200      19905 http://www.datatang.com/data/list/r020-p4493 LL http://www.datatang.com/data/list/r020-p4499 text/html #002 20161102013811310+134 sha1:UTVZEWTGLZRHWACO72AT2IC2URIH3HMX - -
2016-11-02T01:38:14.670Z   200      19871 http://www.datatang.com/data/list/r020-p4494 LL http://www.datatang.com/data/list/r020-p4499 text/html #002 20161102013814496+120 sha1:ZLP2NBFJIPIUGC7SWYOHD2ROU6FJ4YVM - -
2016-11-02T01:38:17.809Z   200      19975 http://www.datatang.com/data/list/r020-p4495 LL http://www.datatang.com/data/list/r020-p4499 text/html #002 20161102013817671+108 sha1:WGMIZRDZKFU7EDWXBCHY6TD64XPVG5SX - -
2016-11-02T01:38:20.959Z   200      20039 http://www.datatang.com/data/list/r020-p4496 LL http://www.datatang.com/data/list/r020-p4499 text/html #002 20161102013820812+122 sha1:HPK2YORLTONL3XXA74GBINVMG5V4LL4Z - -
2016-11-02T01:38:24.113Z   200      19810 http://www.datatang.com/data/list/r020-p4490 LL http://www.datatang.com/data/list/r020-p4499 text/html #002 20161102013823961+108 sha1:KBOHSKYBJIGF6ZM7QIRUCSGDPAOX2N65 - -
2016-11-02T01:38:27.268Z   200      19802 http://www.datatang.com/data/list/r020-p4491 LL http://www.datatang.com/data/list/r020-p4499 text/html #002 20161102013827115+112 sha1:3DYXNMHMC63LNRTTZMOUOI6643RD5E74 - -
2016-11-02T01:38:30.499Z   200      19971 http://www.datatang.com/data/list/r020-p4492 LL http://www.datatang.com/data/list/r020-p4499 text/html #002 20161102013830272+182 sha1:MAZVVJGJILEAJUX2WT3CUJJTVCIEIUJR - -
2016-11-02T01:38:33.755Z   200      33404 http://www.datatang.com/data/47125 LL http://www.datatang.com/data/list/r020-p4 text/html #002 20161102013833501+215 sha1:Z44LVS2KMSXTPZFM2VDTWDGV2QSSLLA2 - -
2016-11-02T01:38:37.099Z   200      30884 http://www.datatang.com/data/47129 LL http://www.datatang.com/data/list/r020-p4 text/html #002 20161102013836759+303 sha1:T3RF2JXH2MR7C5DHIF6HHYZSU7E2Q6N6 - -
2016-11-02T01:38:40.545Z   200      25874 http://www.datatang.com/data/47168 LL http://www.datatang.com/data/list/r020-p4 text/html #002 20161102013840102+403 sha1:5CN64I6MVB25DX4KHO2YO7SV2AXHZPIC - -
2016-11-02T01:38:43.960Z   200      24180 http://www.datatang.com/data/47169 LL http://www.datatang.com/data/list/r020-p4 text/html #002 20161102013843548+379 sha1:3XFO4VDSAQOEN733MBJKXJURNERVSXJJ - -
2016-11-02T01:38:47.197Z   200      25122 http://www.datatang.com/data/47160 LL http://www.datatang.com/data/list/r020-p4 text/html #002 20161102013846962+188 sha1:H2JLXIY7HDVYTBQUDUKVY63YGHN4KC57 - -
2016-11-02T01:38:50.505Z   200      28053 http://www.datatang.com/data/47156 LL http://www.datatang.com/data/list/r020-p4 text/html #002 20161102013850197+293 sha1:6MZSYIEM4RPH64ZEL4IDJAP36BCKOQAH - -
2016-11-02T01:38:53.891Z   200      26646 http://www.datatang.com/data/47180 LL http://www.datatang.com/data/list/r020-p4 text/html #002 20161102013853506+348 sha1:GTGZOS426ZLAJYRXU3WM6XKCEQCPNLRO - -
2016-11-02T01:38:57.145Z   200      26736 http://www.datatang.com/data/47187 LL http://www.datatang.com/data/list/r020-p4 text/html #002 20161102013856894+202 sha1:PEPAYDD5X2YZZZWHOT64MMS53BCQMAOD - -
2016-11-02T01:39:00.477Z   200      31741 http://www.datatang.com/data/47172 LL http://www.datatang.com/data/list/r020-p4 text/html #002 20161102013900148+282 sha1:UGSVVR34GLRS6HDLXGRG3RNTZELZ72EC - -
2016-11-02T01:39:03.963Z   200      40788 http://www.datatang.com/data/47174 LL http://www.datatang.com/data/list/r020-p4 text/html #002 20161102013903482+438 sha1:DQH43JA4YJA5RYFMHSTVVGGVHTHU3V45 - -
2016-11-02T01:39:07.171Z   302        155 http://www.datatang.com/data/47029 LL http://www.datatang.com/data/list/r020-p5 text/html #002 20161102013906967+198 sha1:GKR53V5MRX3H5T7YFJAR5VK7QLZ3WTDE - -
2016-11-02T01:39:10.304Z   302        155 http://www.datatang.com/data/47094 LL http://www.datatang.com/data/list/r020-p5 text/html #002 20161102013910174+89 sha1:D5RCWDMYGULUCSVYPJO573AT52SDXKEJ - -
2016-11-02T01:39:13.647Z   200      28090 http://www.datatang.com/data/46990 LL http://www.datatang.com/data/list/r020-p5 text/html #002 20161102013913308+290 sha1:QCXDIZMAOAVQSJF5NJDGLWVC3OMU2TQZ - -
2016-11-02T01:39:16.873Z   200      29871 http://www.datatang.com/data/47124 LL http://www.datatang.com/data/list/r020-p5 text/html #002 20161102013916647+186 sha1:WVI5KN4SFHVSW7OJEZBOOTAKP6OP5KNY - -
2016-11-02T01:39:20.197Z   200      33164 http://www.datatang.com/data/47056 LL http://www.datatang.com/data/list/r020-p5 text/html #002 20161102013919876+285 sha1:VI4SXIFVFEYG4RLMAL475C2YLJXG2CZH - -
2016-11-02T01:39:23.336Z   200      26566 http://www.datatang.com/data/47004 LL http://www.datatang.com/data/list/r020-p5 text/html #002 20161102013923199+122 sha1:SRTXOWYG5JNFVLHGD3VLLDMJIZR4EQ3H - -
2016-11-02T01:39:26.590Z   200      32926 http://www.datatang.com/data/47100 LL http://www.datatang.com/data/list/r020-p5 text/html #002 20161102013926337+214 sha1:ASKK4CN2VWSMO2BWYAET474HKQJFJQ6R - -
2016-11-02T01:39:29.836Z   200      30440 http://www.datatang.com/data/47109 LL http://www.datatang.com/data/list/r020-p5 text/html #002 20161102013929592+205 sha1:UE4Z2MIRV2G4MXRDH6YWMOOS6EOAGIY4 - -
2016-11-02T01:39:33.228Z   302        155 http://www.datatang.com/data/47041 LL http://www.datatang.com/data/list/r020-p5 text/html #002 20161102013932838+385 sha1:IGPT64W7ZZYMEWJKPOPI3QT4MZKB4UXY - -
2016-11-02T01:39:36.557Z   200      29402 http://www.datatang.com/data/47005 LL http://www.datatang.com/data/list/r020-p5 text/html #002 20161102013936229+279 sha1:ROOX4SNVXDNDXMJX7I5RSORHZWVMDNAX - -
2016-11-02T01:39:39.827Z   200      26997 http://www.datatang.com/data/47209 LL http://www.datatang.com/data/list/r020-p3 text/html #002 20161102013939559+233 sha1:JJP74G5P7KEYIJDI4I2ZMOY5EN6IG6MX - -
2016-11-02T01:39:43.122Z   200      26320 http://www.datatang.com/data/47208 LL http://www.datatang.com/data/list/r020-p3 text/html #002 20161102013942830+255 sha1:OSCB67JIL5H435L27WICM3N33KSKIJHG - -
2016-11-02T01:39:46.347Z   200      26149 http://www.datatang.com/data/47190 LL http://www.datatang.com/data/list/r020-p3 text/html #002 20161102013946125+176 sha1:D7XVVJYOZ3UY7SHOZQLTIBMWS5SQLE2T - -
2016-11-02T01:39:49.441Z   200      26328 http://www.datatang.com/data/47197 LL http://www.datatang.com/data/list/r020-p3 text/html #002 20161102013949349+76 sha1:LIQN4WCCH2XBEEA3LP6EH4ZBUFD7ZBZ3 - -
2016-11-02T01:39:52.663Z   200      32829 http://www.datatang.com/data/47198 LL http://www.datatang.com/data/list/r020-p3 text/html #002 20161102013952443+176 sha1:ZRXIRB4RT4PNYWIRHSUAT2CJEJALG5BS - -
2016-11-02T01:39:55.866Z   200      29135 http://www.datatang.com/data/47201 LL http://www.datatang.com/data/list/r020-p3 text/html #002 20161102013955666+176 sha1:5DQ4NZMPNPLU5P3LL5BFDMAGOZ5CYZCR - -
2016-11-02T01:39:59.279Z   200      27078 http://www.datatang.com/data/47214 LL http://www.datatang.com/data/list/r020-p3 text/html #002 20161102013958868+377 sha1:PJ4OTMJUGILZA5YG6XBUVGEY3XTQBYNC - -
2016-11-02T01:40:02.522Z   200      24723 http://www.datatang.com/data/47226 LL http://www.datatang.com/data/list/r020-p3 text/html #002 20161102014002281+206 sha1:5MT6AVNOU6KH2LV7IFTZH24HTR3G5XXM - -
2016-11-02T01:40:05.764Z   200      32584 http://www.datatang.com/data/47221 LL http://www.datatang.com/data/list/r020-p3 text/html #002 20161102014005524+226 sha1:AWCEYB7CCWKSLE2EFC5NLFMMJFY6L2W5 - -
2016-11-02T01:40:08.999Z   200      24897 http://www.datatang.com/data/47220 LL http://www.datatang.com/data/list/r020-p3 text/html #002 20161102014008766+191 sha1:WZZTSLTUSKCXBFEEU4GJCD2KXLXNGZBP - -
2016-11-02T01:40:12.525Z   200      25311 http://www.datatang.com/data/47247 LL http://www.datatang.com/data/list/r020-p1 text/html #002 20161102014012003+508 sha1:DTJKF2ZK62HZUHWE7RTDF4A7FODGBVOE - -
2016-11-02T01:40:15.707Z   200      25455 http://www.datatang.com/data/47248 LL http://www.datatang.com/data/list/r020-p1 text/html #002 20161102014015527+158 sha1:EV6XF5NYDGB23U4ATRIBBECEACS5VP2Z - -
2016-11-02T01:40:18.975Z   200      26265 http://www.datatang.com/data/47249 LL http://www.datatang.com/data/list/r020-p1 text/html #002 20161102014018709+249 sha1:I4JFG63OY6HVDLQKENZF63YSDCPQ7ZVC - -
2016-11-02T01:40:22.270Z   200      25121 http://www.datatang.com/data/47246 LL http://www.datatang.com/data/list/r020-p1 text/html #002 20161102014021977+280 sha1:6EOBTJSH2NWSD6EMXBFP6DRTIFE4WG4O - -
2016-11-02T01:40:25.527Z   200      25105 http://www.datatang.com/data/47245 LL http://www.datatang.com/data/list/r020-p1 text/html #002 20161102014025271+243 sha1:GV2LOH7XUK2QAM7762IRWNPSOP3O3XEC - -
2016-11-02T01:40:28.856Z   200      31065 http://www.datatang.com/data/47250 LL http://www.datatang.com/data/list/r020-p1 text/html #002 20161102014028529+293 sha1:AB5G47ASAQZ7U5RONO2A4TT44LU6QUBL - -
2016-11-02T01:40:32.250Z   200      27162 http://www.datatang.com/data/47253 LL http://www.datatang.com/data/list/r020-p1 text/html #002 20161102014031859+346 sha1:XXCFAZ2GCZAAMJRR6W3WS6GBQXHEMAAP - -
2016-11-02T01:40:35.718Z   200      26347 http://www.datatang.com/data/47264 LL http://www.datatang.com/data/list/r020-p1 text/html #002 20161102014035252+420 sha1:V4VNVGCEQBBACL4QOCD7KGPJQOMLWH6T - -
2016-11-02T01:40:38.858Z   200      25217 http://www.datatang.com/data/47261 LL http://www.datatang.com/data/list/r020-p1 text/html #002 20161102014038720+99 sha1:SZXETZKN3OUQAILYTHML3ETKTWMZTQUM - -
2016-11-02T01:40:41.939Z   200      24798 http://www.datatang.com/data/47265 LL http://www.datatang.com/data/list/r020-p1 text/html #002 20161102014041859+69 sha1:2QZRG2G7AXRRVYHHUXGKHYIIWOAH3SKF - -
2016-11-02T01:40:45.159Z   200      25457 http://www.datatang.com/data/46957 LL http://www.datatang.com/data/list/r020-p8 text/html #002 20161102014044941+163 sha1:PN5ADI3PHBUDJQYCY54UOLRM36337KN7 - -
2016-11-02T01:40:48.507Z   200      25543 http://www.datatang.com/data/46956 LL http://www.datatang.com/data/list/r020-p8 text/html #002 20161102014048163+301 sha1:MNWB4O24IK2ASVKV45NJJUC2WD5UYIXG - -
2016-11-02T01:40:51.611Z   200      26799 http://www.datatang.com/data/46955 LL http://www.datatang.com/data/list/r020-p8 text/html #002 20161102014051509+89 sha1:UTP53ZZ4N3N6STNWRS4YGZ4GK7RX4ORU - -
2016-11-02T01:40:54.754Z   200      26689 http://www.datatang.com/data/46959 LL http://www.datatang.com/data/list/r020-p8 text/html #002 20161102014054613+102 sha1:CUR4PLBRI5MH4GUSYK7PTPX3DFSKWWAP - -
2016-11-02T01:40:57.937Z   200      25810 http://www.datatang.com/data/46958 LL http://www.datatang.com/data/list/r020-p8 text/html #002 20161102014057756+170 sha1:PFR4GREMYMYA32PMHGGG453JZWJJ3MZO - -
2016-11-02T01:41:01.175Z   200      19243 http://www.datatang.com/data/list/r020-p11 LL http://www.datatang.com/data/list/r020-p8 text/html #002 20161102014100939+188 sha1:CLZJRDAIGLW64PZOZLVAMYCKVNFNP3KM - -
2016-11-02T01:41:04.361Z   200      22264 http://www.datatang.com/data/list/r020-p12 LL http://www.datatang.com/data/list/r020-p8 text/html #002 20161102014104177+170 sha1:TM2HBCLB5SLECD4XA2K27Y2W44XBO6ZA - -
2016-11-02T01:41:07.480Z   200      25366 http://www.datatang.com/data/46963 LL http://www.datatang.com/data/list/r020-p8 text/html #002 20161102014107362+82 sha1:LX37KM2GQB2QYTF5GQI7N4LMK263CY5Q - -
2016-11-02T01:41:10.611Z   200      25645 http://www.datatang.com/data/46964 LL http://www.datatang.com/data/list/r020-p8 text/html #002 20161102014110483+116 sha1:JDZDH4ZH7EKPLVQLWAGYWSPQLBXGSA3K - -
2016-11-02T01:41:13.809Z   302        155 http://www.datatang.com/data/46962 LL http://www.datatang.com/data/list/r020-p8 text/html #002 20161102014113612+193 sha1:RAEHENGMIS6NYRQ4MVP5CSLECF76O7TM - -
2016-11-02T01:41:16.998Z   200      25453 http://www.datatang.com/data/46965 LL http://www.datatang.com/data/list/r020-p8 text/html #002 20161102014116810+177 sha1:NOFVF3Z6ESBB65YPOVZUXFWW5I3Z6E2Z - -
2016-11-02T01:41:20.154Z   200      25452 http://www.datatang.com/data/46966 LL http://www.datatang.com/data/list/r020-p8 text/html #002 20161102014119999+143 sha1:QHTL72MYLF2OXJYNX75J5T4YTUC2BBZF - -
2016-11-02T01:41:23.374Z   200      25965 http://www.datatang.com/data/46954 LL http://www.datatang.com/data/list/r020-p9 text/html #002 20161102014123157+197 sha1:P25LJ275MKA4WWYBSTKNSRSQZOKTNACP - -
2016-11-02T01:41:26.523Z   200      26532 http://www.datatang.com/data/46952 LL http://www.datatang.com/data/list/r020-p9 text/html #002 20161102014126376+115 sha1:5S267NQAJ6ISBCG6NTWITTGRF6PKX3BB - -
2016-11-02T01:41:29.869Z   200      32418 http://www.datatang.com/data/46950 LL http://www.datatang.com/data/list/r020-p9 text/html #002 20161102014129526+309 sha1:YIF2IR643LNPX7E6NDZC76VPWVYNPQNR - -
2016-11-02T01:41:33.155Z   200      25779 http://www.datatang.com/data/46951 LL http://www.datatang.com/data/list/r020-p9 text/html #002 20161102014132872+254 sha1:XXQBFCYFZPOXJ6CD2F7ZNFS6NH7MQOMK - -
2016-11-02T01:41:36.475Z   200      32181 http://www.datatang.com/data/46944 LL http://www.datatang.com/data/list/r020-p9 text/html #002 20161102014136157+305 sha1:BTOG3RDE3OJVOB22YIRJNUSGFOJZ3ZKN - -
2016-11-02T01:41:39.826Z   200      32416 http://www.datatang.com/data/46945 LL http://www.datatang.com/data/list/r020-p9 text/html #002 20161102014139479+329 sha1:YD6MVIDV3IORPYWJSGXMBQALEGL42VAA - -
2016-11-02T01:41:43.172Z   200      32335 http://www.datatang.com/data/46946 LL http://www.datatang.com/data/list/r020-p9 text/html #002 20161102014142830+309 sha1:ECEALINDANDCJ6MYXHLEJYT42DYXAR6I - -
2016-11-02T01:41:46.481Z   200      32262 http://www.datatang.com/data/46947 LL http://www.datatang.com/data/list/r020-p9 text/html #002 20161102014146173+296 sha1:YKYNOCIQB53QJCGPCM3YIJXY7JF6YUV4 - -
2016-11-02T01:41:49.789Z   200      32266 http://www.datatang.com/data/46948 LL http://www.datatang.com/data/list/r020-p9 text/html #002 20161102014149481+286 sha1:G5Z6K2OUCPBXGMXKMDKZCX6OSCMD5O2Q - -
2016-11-02T01:41:53.130Z   200      32183 http://www.datatang.com/data/46949 LL http://www.datatang.com/data/list/r020-p9 text/html #002 20161102014152793+295 sha1:2YUVSF7AADXP26SIJFYWDD4ZK4JT3S66 - -
2016-11-02T01:41:56.335Z   200      20091 http://www.datatang.com/data/list/r020-p13 LL http://www.datatang.com/data/list/r020-p9 text/html #002 20161102014156133+188 sha1:WRKMWPXH47MXV3MJZ7GYSERJHIV3J7JM - -
2016-11-02T01:41:59.444Z   200      24400 http://www.datatang.com/data/46980 LL http://www.datatang.com/data/list/r020-p6 text/html #002 20161102014159336+91 sha1:5NLXMMJKUUJQLDLOFBHEZUWXWWHEYTVJ - -
2016-11-02T01:42:02.777Z   200      32246 http://www.datatang.com/data/46987 LL http://www.datatang.com/data/list/r020-p6 text/html #002 20161102014202446+319 sha1:CD2PV3OTY7NAT3LPYVD7Y2JYHSRHXIX4 - -
2016-11-02T01:42:06.181Z   200      32248 http://www.datatang.com/data/46988 LL http://www.datatang.com/data/list/r020-p6 text/html #002 20161102014205780+364 sha1:5WCABTAWE6H7OPYO2CXV6EE5XY35LFPH - -
2016-11-02T01:42:09.546Z   200      28287 http://www.datatang.com/data/46989 LL http://www.datatang.com/data/list/r020-p6 text/html #002 20161102014209182+314 sha1:3VAG3DIHD42PVHQ4MAA5BD7LTKLGXMT4 - -
2016-11-02T01:42:12.891Z   200      32229 http://www.datatang.com/data/46983 LL http://www.datatang.com/data/list/r020-p6 text/html #002 20161102014212549+306 sha1:SMBJGCJN3NLINCUVNOTCWYQXIC5DFC53 - -
2016-11-02T01:42:16.233Z   200      32406 http://www.datatang.com/data/46984 LL http://www.datatang.com/data/list/r020-p6 text/html #002 20161102014215895+301 sha1:NF2AGZNCKV6LBKEIKO7F7OMTTFJB6PPJ - -
2016-11-02T01:42:19.574Z   200      32406 http://www.datatang.com/data/46985 LL http://www.datatang.com/data/list/r020-p6 text/html #002 20161102014219234+327 sha1:BJ5RY2ZSFM5522LEJ44GGURLAO3GIB44 - -
2016-11-02T01:42:22.908Z   200      32178 http://www.datatang.com/data/46986 LL http://www.datatang.com/data/list/r020-p6 text/html #002 20161102014222577+286 sha1:3ZS2LJNYYX4KTX26QVQ7JADV7GJMKKKK - -
2016-11-02T01:42:26.108Z   200      26828 http://www.datatang.com/data/46978 LL http://www.datatang.com/data/list/r020-p6 text/html #002 20161102014225911+184 sha1:GN2AOSJ7SEJ6U7EXEPB3FFRT7MPWDH74 - -
2016-11-02T01:42:29.248Z   200      26794 http://www.datatang.com/data/46979 LL http://www.datatang.com/data/list/r020-p6 text/html #002 20161102014229109+127 sha1:S2OWJBNL5YQFVNXDUNQORYO4TNY5TL7A - -
2016-11-02T01:42:32.616Z   200      24520 http://www.datatang.com/data/46970 LL http://www.datatang.com/data/list/r020-p7 text/html #002 20161102014232250+301 sha1:QTZGYP7JORM3R2O664ZVVYJF7ASFD67F - -
2016-11-02T01:42:35.870Z   200      24512 http://www.datatang.com/data/46971 LL http://www.datatang.com/data/list/r020-p7 text/html #002 20161102014235618+242 sha1:B4P5LUH5KMHIBG3MA3OC3W2OX4WVK2X4 - -
2016-11-02T01:42:39.077Z   200      26052 http://www.datatang.com/data/46974 LL http://www.datatang.com/data/list/r020-p7 text/html #002 20161102014238873+185 sha1:62WAZJEINJVAHKRCAIFYGMHGHFXYLYY3 - -
2016-11-02T01:42:42.256Z   200      27647 http://www.datatang.com/data/46973 LL http://www.datatang.com/data/list/r020-p7 text/html #002 20161102014242077+139 sha1:CAL63VX4ISEUBVWWKVVP2YRFKSFVR5HG - -
2016-11-02T01:42:45.432Z   200      28529 http://www.datatang.com/data/46972 LL http://www.datatang.com/data/list/r020-p7 text/html #002 20161102014245259+160 sha1:3YG6AMWYY57YB25QXEYDE6EQF57EJIIV - -
2016-11-02T01:42:48.764Z   200      24511 http://www.datatang.com/data/46977 LL http://www.datatang.com/data/list/r020-p7 text/html #002 20161102014248434+293 sha1:ET6EMPWM6CRM3JHEPM23QJFAUJJWKEDR - -
2016-11-02T01:42:52.018Z   200      33111 http://www.datatang.com/data/46976 LL http://www.datatang.com/data/list/r020-p7 text/html #002 20161102014251767+214 sha1:WCLSKADHJHPTF3FDX4EBOQDXXAIMHGG6 - -
2016-11-02T01:42:55.266Z   200      26616 http://www.datatang.com/data/46969 LL http://www.datatang.com/data/list/r020-p7 text/html #002 20161102014255021+182 sha1:37DAJZXYHHEWAZWP5SNY5WUPJ5K3B6QS - -
2016-11-02T01:42:58.395Z   200      25452 http://www.datatang.com/data/46968 LL http://www.datatang.com/data/list/r020-p7 text/html #002 20161102014258270+114 sha1:IQJVHCEOYNMW2KHYWSL6SVAAFQQASCH6 - -
2016-11-02T01:43:01.777Z   200      27915 http://www.datatang.com/data/46967 LL http://www.datatang.com/data/list/r020-p7 text/html #002 20161102014301398+362 sha1:FLKBWIRV4VGCFTSGDQQR35CILZPPDQ36 - -
2016-11-02T01:43:05.099Z   200      24488 http://www.datatang.com/data/44488 LL http://www.datatang.com/data/47241 text/html #002 20161102014304778+291 sha1:GNGCA6GHVBMUDKG4GOIJEMLPHOCDYTZA - -
2016-11-02T01:43:08.467Z   200      26030 http://www.datatang.com/data/29157 LL http://www.datatang.com/data/47241 text/html #002 20161102014308102+345 sha1:B6JMCDD6Z6YU26AIBPMEDNEWB5X5P5EC - -
2016-11-02T01:43:11.701Z   200      24569 http://www.datatang.com/data/44268 LL http://www.datatang.com/data/47241 text/html #002 20161102014311469+213 sha1:SCFCQLHZAVXXP5XDCWD6K3W2QMLELYFO - -
2016-11-02T01:43:15.046Z   200      32231 http://www.datatang.com/data/46925 LL http://www.datatang.com/data/list/r020-p10 text/html #002 20161102014314703+297 sha1:SIRM2NID23TCX424E4GLP5IWYPVOZHP7 - -
2016-11-02T01:43:18.355Z   200      32277 http://www.datatang.com/data/46926 LL http://www.datatang.com/data/list/r020-p10 text/html #002 20161102014318048+295 sha1:5QH6DN3CQDYES4XOOFOPDP3TU4TFJ4UM - -
2016-11-02T01:43:21.775Z   200      32279 http://www.datatang.com/data/46927 LL http://www.datatang.com/data/list/r020-p10 text/html #002 20161102014321358+374 sha1:PQEOEHUUG357X2XJQYJOH2EBYMQUXMGK - -
2016-11-02T01:43:25.142Z   200      32439 http://www.datatang.com/data/46928 LL http://www.datatang.com/data/list/r020-p10 text/html #006 20161102014324775+317 sha1:T4ETOJVM5W6JPRRSEYHMABC3MRFXHGXN - -
2016-11-02T01:43:28.454Z   200      32439 http://www.datatang.com/data/46929 LL http://www.datatang.com/data/list/r020-p10 text/html #006 20161102014328144+293 sha1:IFQBWFKHG2R52LFSREQ3VVPGDKCCPCZP - -
2016-11-02T01:43:31.791Z   200      32353 http://www.datatang.com/data/46930 LL http://www.datatang.com/data/list/r020-p10 text/html #006 20161102014331457+292 sha1:3HDBLXCE7DNXQJENTLPHAV46ZNQLN7LF - -
2016-11-02T01:43:34.996Z   200      22272 http://www.datatang.com/data/list/r020-p14 LL http://www.datatang.com/data/list/r020-p10 text/html #006 20161102014334793+190 sha1:BZOWRQVXZPF2S6FUXO5Z7B7LUA4UDEDL - -
2016-11-02T01:43:38.336Z   200      32250 http://www.datatang.com/data/46943 LL http://www.datatang.com/data/list/r020-p10 text/html #006 20161102014337998+286 sha1:HRZJPBVVNG75IC24WJ7DRSWTKVV34QDJ - -
2016-11-02T01:43:41.664Z   200      32327 http://www.datatang.com/data/46940 LL http://www.datatang.com/data/list/r020-p10 text/html #006 20161102014341338+312 sha1:ZKFO2LDAQA7QS2DLGLM2Z5F5OWJ2FP2X - -
2016-11-02T01:43:44.968Z   200      32233 http://www.datatang.com/data/46941 LL http://www.datatang.com/data/list/r020-p10 text/html #006 20161102014344666+291 sha1:3CZIV5TV6KRUVKVXC4TIFJYIZMHNF5RO - -
2016-11-02T01:43:48.287Z   200      32258 http://www.datatang.com/data/46942 LL http://www.datatang.com/data/list/r020-p10 text/html #006 20161102014347970+306 sha1:EHFCPKSKZQYSTGSBTDAVOT7XBIA4LF2G - -
2016-11-02T01:43:51.596Z   200      32526 http://www.datatang.com/data/46339 LLL http://www.datatang.com/data/46337 text/html #006 20161102014351289+296 sha1:KPBDV7CJ66UBENKQ4RMEC3TXO7T6GCWD - -
2016-11-02T01:43:54.984Z   200      32535 http://www.datatang.com/data/46338 LLL http://www.datatang.com/data/46337 text/html #006 20161102014354598+337 sha1:F6TR4L5ZZN5FL6V6XQ37M3DFEPLF2YKZ - -
2016-11-02T01:43:58.384Z   200      34418 http://www.datatang.com/data/37409 LLL http://www.datatang.com/data/37284 text/html #006 20161102014357987+386 sha1:F5MT4BK5SPCPLQT36BQ7PSOPV46DJLGV - -
2016-11-02T01:44:01.710Z   200      30486 http://www.datatang.com/data/37283 LLL http://www.datatang.com/data/37284 text/html #006 20161102014401388+312 sha1:K7QIMSL7GLZAUZF74KB6VAO7YW7NOMRR - -
2016-11-02T01:44:05.100Z   200      33667 http://www.datatang.com/data/38634 LLL http://www.datatang.com/data/37284 text/html #006 20161102014404711+347 sha1:7HNXL6QE37HVXXFZW2WXNYYDMNWKFYOO - -
2016-11-02T01:44:08.500Z   200      33543 http://www.datatang.com/data/38636 LLL http://www.datatang.com/data/37284 text/html #006 20161102014408102+388 sha1:3J2HMAZJMLNZKZK2M2XVUQYLQQH6AJUH - -
2016-11-02T01:44:11.818Z   200      32443 http://www.datatang.com/data/37315 LLL http://www.datatang.com/data/37284 text/html #006 20161102014411504+304 sha1:VB5Y4NJS2AHSGWFPPLJWDTXGIFBX63GD - -
2016-11-02T01:44:14.905Z   200      32043 http://www.datatang.com/data/37314 LLL http://www.datatang.com/data/37284 text/html #006 20161102014414821+74 sha1:NJEEDK245RM2H6ELUDC3BAE2P4BMT7OL - -
2016-11-02T01:44:18.194Z   200      34040 http://www.datatang.com/data/37364 LLL http://www.datatang.com/data/37284 text/html #006 20161102014417906+277 sha1:DQMPKLVFCQKZ4LSKHUR5U5B6P4ZCZHJJ - -
2016-11-02T01:44:21.305Z   200      34099 http://www.datatang.com/data/37363 LLL http://www.datatang.com/data/37284 text/html #006 20161102014421197+78 sha1:YVQPHQYMBB6QRRTV2RJXAC36HBOQQT7T - -
2016-11-02T01:44:24.690Z   200      32799 http://www.datatang.com/data/37366 LLL http://www.datatang.com/data/37284 text/html #006 20161102014424307+348 sha1:L7ON2UHATI3PIUQIRH2MEH27XLU5FX2T - -
2016-11-02T01:44:28.035Z   200      47710 http://www.datatang.com/data/32689 LLL http://www.datatang.com/data/37284 text/html #006 20161102014427694+307 sha1:7K7G4F2Y6GOEXDA43GVZYCHOY4LSDQSA - -
2016-11-02T01:44:31.252Z   200      30824 http://www.datatang.com/data/513 LLL http://www.datatang.com/data/507 text/html #006 20161102014431039+178 sha1:P5WOWS4JA57YGNWWBVU733F7EQTZAOUS - -
2016-11-02T01:44:34.459Z   200      30587 http://www.datatang.com/data/2770 LLL http://www.datatang.com/data/507 text/html #006 20161102014434255+176 sha1:4XPBPG7PXQTH6HE22BS77EEMDIRBHZRI - -
2016-11-02T01:44:37.593Z   200      28076 http://www.datatang.com/data/1184 LLL http://www.datatang.com/data/list/r020-p4497 text/html #006 20161102014437462+96 sha1:3S2MC4GB5JSXQBUKPEAAA6HMTDMETUIJ - -
2016-11-02T01:44:40.694Z   200      28128 http://www.datatang.com/data/1185 LLL http://www.datatang.com/data/list/r020-p4497 text/html #006 20161102014440596+89 sha1:PVEA732YO5C2OVMFLJVQMG62EEXB2FOQ - -
2016-11-02T01:44:43.925Z   200      30612 http://www.datatang.com/data/514 LLL http://www.datatang.com/data/list/r020-p4497 text/html #006 20161102014443695+211 sha1:HMIU7WUTHPIJFFJWRMNRHVWUWXBQSV3E - -
2016-11-02T01:44:47.193Z   200      33496 http://www.datatang.com/data/515 LLL http://www.datatang.com/data/list/r020-p4497 text/html #006 20161102014446926+235 sha1:OSS767LQQYHJWU5HPEKNIL6D4N7J7TKO - -
2016-11-02T01:44:50.388Z   200      28668 http://www.datatang.com/data/518 LLL http://www.datatang.com/data/list/r020-p4497 text/html #006 20161102014450195+182 sha1:262TRSHO7SYL3HDTUL6ZN3NQSNWHC5DX - -
2016-11-02T01:44:53.655Z   200      29378 http://www.datatang.com/data/516 LLL http://www.datatang.com/data/list/r020-p4497 text/html #006 20161102014453390+239 sha1:CX7CHSH5STZHPLVGJIZDUOKU7RMQXWDQ - -
2016-11-02T01:44:56.739Z   200      28517 http://www.datatang.com/data/1187 LLL http://www.datatang.com/data/list/r020-p4497 text/html #006 20161102014456657+72 sha1:GFM6SFG7PNW7KHVLZAU2FH6PSYNBUEWH - -
2016-11-02T01:44:59.856Z   200      29814 http://www.datatang.com/data/1189 LLL http://www.datatang.com/data/list/r020-p4497 text/html #006 20161102014459740+68 sha1:NULQQTFHJOGDTY4V3CIKVOKJLKBRCGTJ - -
2016-11-02T01:45:03.057Z   200      30061 http://www.datatang.com/data/1188 LLL http://www.datatang.com/data/list/r020-p4497 text/html #006 20161102014502858+176 sha1:3NOQJFOMJSDOIDIUINUJUZL6QXBUUYXE - -
2016-11-02T01:45:06.280Z   200      30956 http://www.datatang.com/data/502 LLL http://www.datatang.com/data/list/r020-p4498 text/html #006 20161102014506060+184 sha1:OJAT67GLTOBU6XKWPYKO7KDE3MTFWSLA - -
2016-11-02T01:45:09.574Z   200      30122 http://www.datatang.com/data/504 LLL http://www.datatang.com/data/list/r020-p4498 text/html #006 20161102014509283+263 sha1:XGTMSZEYYXE7IREVJ32SJK54DI5HONAR - -
2016-11-02T01:45:12.815Z   200      29320 http://www.datatang.com/data/503 LLL http://www.datatang.com/data/list/r020-p4498 text/html #006 20161102014512575+181 sha1:MIB4NUXQHHF3P6I47C4E5KTIWFM4NR4J - -
2016-11-02T01:45:16.011Z   200      32839 http://www.datatang.com/data/509 LLL http://www.datatang.com/data/list/r020-p4498 text/html #006 20161102014515817+170 sha1:TZ35MNE7HVIT4XJEEWXBBQD4QEZWO7QF - -
2016-11-02T01:45:19.166Z   200      31436 http://www.datatang.com/data/506 LLL http://www.datatang.com/data/list/r020-p4498 text/html #006 20161102014519012+111 sha1:SIISNSCGLZ3ZC6YBHRZ3CVYYXXFT2RPW - -
2016-11-02T01:45:22.354Z   200      29304 http://www.datatang.com/data/505 LLL http://www.datatang.com/data/list/r020-p4498 text/html #006 20161102014522168+177 sha1:Z6SNJM5LRYOXKO3L2JX4TBEMPB6FKD7N - -
2016-11-02T01:45:25.544Z   200      29950 http://www.datatang.com/data/512 LLL http://www.datatang.com/data/list/r020-p4498 text/html #006 20161102014525356+178 sha1:XN64DOSUYUNGZ56D4YUQUG7RXRYJGFG3 - -
2016-11-02T01:45:28.719Z   200      28279 http://www.datatang.com/data/511 LLL http://www.datatang.com/data/list/r020-p4498 text/html #006 20161102014528545+164 sha1:GHBXRX4NWMLKHSE6PXYUWOVMS3DIDAF4 - -
2016-11-02T01:45:31.897Z   200      31488 http://www.datatang.com/data/510 LLL http://www.datatang.com/data/list/r020-p4498 text/html #006 20161102014531722+160 sha1:XUVIM6M5Z5QCUR53GS2JRYS5JZLFATLL - -
2016-11-02T01:45:35.129Z   200      28107 http://www.datatang.com/data/1186 LLL http://www.datatang.com/data/list/r020-p4498 text/html #006 20161102014534899+217 sha1:DSOTAD6POJL4HFUZUKJIPJIFNCDXUGS6 - -
2016-11-02T01:45:38.283Z   200      19946 http://www.datatang.com/data/list/r020-p4488 LLL http://www.datatang.com/data/list/r020-p4493 text/html #006 20161102014538131+113 sha1:J27PJIR5ZCN6NO4EZFXPWWFS3B6LBYEK - -
2016-11-02T01:45:41.447Z   200      20053 http://www.datatang.com/data/list/r020-p4489 LLL http://www.datatang.com/data/list/r020-p4493 text/html #006 20161102014541286+120 sha1:UN4LKW3C7UIBFF2XCILNAFUYDLOERJI4 - -
2016-11-02T01:45:44.638Z   200      30454 http://www.datatang.com/data/544 LLL http://www.datatang.com/data/list/r020-p4493 text/html #006 20161102014544450+179 sha1:AJTRB3NK52OZJEMYTR3PRUOXREHXXBKX - -
2016-11-02T01:45:47.891Z   200      30198 http://www.datatang.com/data/543 LLL http://www.datatang.com/data/list/r020-p4493 text/html #006 20161102014547639+228 sha1:6A2XARHK3AVESKZM4MDR2M5CENPQ4P4W - -
2016-11-02T01:45:51.090Z   200      29670 http://www.datatang.com/data/542 LLL http://www.datatang.com/data/list/r020-p4493 text/html #006 20161102014550893+164 sha1:GHTVBU3CWLGISEVRD5BTUJGQCSB7TYXX - -
2016-11-02T01:45:54.308Z   200      29471 http://www.datatang.com/data/541 LLL http://www.datatang.com/data/list/r020-p4493 text/html #006 20161102014554092+207 sha1:OM5ST5NE7LXY6ZO24M53RF6OB23QGLM2 - -
2016-11-02T01:45:57.505Z   200      28208 http://www.datatang.com/data/1199 LLL http://www.datatang.com/data/list/r020-p4493 text/html #006 20161102014557310+186 sha1:KR6WZXS45N3PZQBR7UIDF5HE554ZSG72 - -
2016-11-02T01:46:00.628Z   200      28852 http://www.datatang.com/data/1198 LLL http://www.datatang.com/data/list/r020-p4493 text/html #006 20161102014600508+88 sha1:YK2WTWMCHHZJOZDRSMK5CDNBFBGMWNZX - -
2016-11-02T01:46:03.820Z   200      30432 http://www.datatang.com/data/537 LLL http://www.datatang.com/data/list/r020-p4493 text/html #006 20161102014603629+157 sha1:63UKGRHLZ44Y2EMKCE7BLDYLQJ5AKDJO - -
2016-11-02T01:46:07.012Z   200      29141 http://www.datatang.com/data/1205 LLL http://www.datatang.com/data/list/r020-p4493 text/html #006 20161102014606822+168 sha1:IUSKPJVEHOLFNBXAPMTTO3M7ASPH7AWA - -
2016-11-02T01:46:10.238Z   200      28209 http://www.datatang.com/data/1204 LLL http://www.datatang.com/data/list/r020-p4493 text/html #006 20161102014610013+216 sha1:PDS5E5VZDJTPBZEUWJSW2KVAZQRNAV3B - -
2016-11-02T01:46:13.410Z   200      31143 http://www.datatang.com/data/1203 LLL http://www.datatang.com/data/list/r020-p4493 text/html #006 20161102014613240+159 sha1:UEBV4RT2INCGL4HSBJNUYUG5H5KOYSP7 - -
2016-11-02T01:46:16.645Z   200      31021 http://www.datatang.com/data/540 LLL http://www.datatang.com/data/list/r020-p4494 text/html #006 20161102014616413+171 sha1:EUMWJI6EEMEI46I37JOG66GBALPR3ZNI - -
2016-11-02T01:46:19.836Z   200      29260 http://www.datatang.com/data/523 LLL http://www.datatang.com/data/list/r020-p4494 text/html #006 20161102014619647+180 sha1:CG43P47LVHIOXGPBIGP5ADBQUD6I5J5F - -
2016-11-02T01:46:23.073Z   200      29241 http://www.datatang.com/data/526 LLL http://www.datatang.com/data/list/r020-p4494 text/html #006 20161102014622839+199 sha1:PISZDGL6AQGPYPXUEVQHJDW5FN7373EF - -
2016-11-02T01:46:26.361Z   200      30262 http://www.datatang.com/data/525 LLL http://www.datatang.com/data/list/r020-p4494 text/html #006 20161102014626074+270 sha1:3YWEX47NHT7MXQLHVMEJIU5X7EN65ERE - -
2016-11-02T01:46:29.576Z   200      29535 http://www.datatang.com/data/522 LLL http://www.datatang.com/data/list/r020-p4494 text/html #006 20161102014629364+202 sha1:ZARXAE5PGHQJC26FPACQMG3CVVIEXHUW - -
2016-11-02T01:46:32.801Z   200      28792 http://www.datatang.com/data/527 LLL http://www.datatang.com/data/list/r020-p4494 text/html #006 20161102014632576+215 sha1:FXKHQKVVBL4R62QRXJ77N2BZMEL5NHYD - -
2016-11-02T01:46:36.027Z   200      32680 http://www.datatang.com/data/536 LLL http://www.datatang.com/data/list/r020-p4494 text/html #006 20161102014635804+182 sha1:6R5HACCCB65RKC4GHK5D7H2TYC2EV7GL - -
2016-11-02T01:46:39.203Z   200      29006 http://www.datatang.com/data/535 LLL http://www.datatang.com/data/list/r020-p4494 text/html #006 20161102014639030+163 sha1:ZVY6JUKG7QOKKUIKZXCRKJEPDSWUJM3M - -
2016-11-02T01:46:42.420Z   200      28790 http://www.datatang.com/data/539 LLL http://www.datatang.com/data/list/r020-p4494 text/html #006 20161102014642205+182 sha1:OXKXVBTJLHPT5PZ6AERDPCC4LXNP3KNK - -
2016-11-02T01:46:45.600Z   200      28278 http://www.datatang.com/data/538 LLL http://www.datatang.com/data/list/r020-p4494 text/html #006 20161102014645423+167 sha1:DG5PBRJVI4C2AEPQWBZZCHKCJZZQO6C4 - -
2016-11-02T01:46:48.848Z   200      28776 http://www.datatang.com/data/524 LLL http://www.datatang.com/data/list/r020-p4495 text/html #006 20161102014648602+236 sha1:W6HFUAWLBUWAMSNSMHWUNF5XP7PG7LXS - -
2016-11-02T01:46:52.035Z   200      30547 http://www.datatang.com/data/529 LLL http://www.datatang.com/data/list/r020-p4495 text/html #006 20161102014651850+175 sha1:GBFYMD3PTBTMD7JCJ6CQSVAPJBHZERE6 - -
2016-11-02T01:46:55.288Z   200      30053 http://www.datatang.com/data/528 LLL http://www.datatang.com/data/list/r020-p4495 text/html #006 20161102014655039+198 sha1:2OTTPKYJ6TDYF6QK7HQTNANB7TAYPFWP - -
2016-11-02T01:46:58.487Z   200      29522 http://www.datatang.com/data/534 LLL http://www.datatang.com/data/list/r020-p4495 text/html #006 20161102014658292+175 sha1:2U4FORTJS7SOEMNCHKJS3MVKAGPD7ZTB - -
2016-11-02T01:47:01.599Z   200      33098 http://www.datatang.com/data/530 LLL http://www.datatang.com/data/list/r020-p4495 text/html #006 20161102014701490+67 sha1:35LU3KYPZBFU43RLO5QHAAH32BP4VSJH - -
2016-11-02T01:47:04.804Z   200      30187 http://www.datatang.com/data/531 LLL http://www.datatang.com/data/list/r020-p4495 text/html #006 20161102014704602+170 sha1:V4URHLTNHVBZEUQVLQPUY4KX3YWAYYXI - -
2016-11-02T01:47:08.002Z   200      32030 http://www.datatang.com/data/532 LLL http://www.datatang.com/data/list/r020-p4495 text/html #006 20161102014707806+162 sha1:G62NND4UZTQA25BJ5WM43IRQCU464HVM - -
2016-11-02T01:47:11.435Z   200      30503 http://www.datatang.com/data/533 LLL http://www.datatang.com/data/list/r020-p4495 text/html #006 20161102014711003+421 sha1:FW3FEKCUM4BIQUYSHA57IXMREU5VAFLG - -
2016-11-02T01:47:14.645Z   200      29354 http://www.datatang.com/data/1193 LLL http://www.datatang.com/data/list/r020-p4495 text/html #006 20161102014714436+199 sha1:SE2ASZI2JMRFD5CYBTSFJUCYZG4HT4S6 - -
2016-11-02T01:47:17.835Z   200      28194 http://www.datatang.com/data/1194 LLL http://www.datatang.com/data/list/r020-p4495 text/html #006 20161102014717646+179 sha1:2KVAPYG2ONSRZLEXAGJLDRPCMSC4JMJS - -
2016-11-02T01:47:21.068Z   200      31127 http://www.datatang.com/data/517 LLL http://www.datatang.com/data/list/r020-p4496 text/html #006 20161102014720837+209 sha1:BI6CE57HDHHA33CWXEW2B5CBGW3FSN4M - -
2016-11-02T01:47:24.240Z   200      31367 http://www.datatang.com/data/519 LLL http://www.datatang.com/data/list/r020-p4496 text/html #006 20161102014724069+161 sha1:6H5SMZRLYOZ5K3JP27CUYTSLLFRWJL3X - -
2016-11-02T01:47:27.341Z   200      28686 http://www.datatang.com/data/1197 LLL http://www.datatang.com/data/list/r020-p4496 text/html #006 20161102014727241+91 sha1:TTJ2NA2P6QOLJN2MXVSIHJFLXJMKBG4S - -
2016-11-02T01:47:30.512Z   200      31645 http://www.datatang.com/data/521 LLL http://www.datatang.com/data/list/r020-p4496 text/html #006 20161102014730344+159 sha1:GIIUMVHAXTQHX2N6SWIOA2ML5UTWEWC6 - -
2016-11-02T01:47:33.755Z   200      31411 http://www.datatang.com/data/520 LLL http://www.datatang.com/data/list/r020-p4496 text/html #006 20161102014733513+204 sha1:IAZA5T5GVROLHEN6GBPZ7YFVQN3WIKZE - -
2016-11-02T01:47:36.932Z   200      28157 http://www.datatang.com/data/1196 LLL http://www.datatang.com/data/list/r020-p4496 text/html #006 20161102014736757+167 sha1:YMBOIVS65MSJ4TXVPE2AJP2AZOCIH3RM - -
2016-11-02T01:47:40.062Z   200      28534 http://www.datatang.com/data/1195 LLL http://www.datatang.com/data/list/r020-p4496 text/html #006 20161102014739936+102 sha1:SIJ5R3AJ7CYBUR42TZQMEY6Z52NVO2QP - -
2016-11-02T01:47:43.289Z   200      28208 http://www.datatang.com/data/1192 LLL http://www.datatang.com/data/list/r020-p4496 text/html #006 20161102014743065+189 sha1:C3SBQF4YB5I5KAV6TQV4G3L5UI42FPN3 - -
2016-11-02T01:47:46.484Z   200      30755 http://www.datatang.com/data/1191 LLL http://www.datatang.com/data/list/r020-p4496 text/html #006 20161102014746291+163 sha1:A7IXBHOH7372X5ZFMNQXAHBISCTN7CRB - -
2016-11-02T01:47:49.703Z   200      28503 http://www.datatang.com/data/1190 LLL http://www.datatang.com/data/list/r020-p4496 text/html #006 20161102014749488+181 sha1:KM2K6T2DECZXTR65NRIUOJLT73QHHIV5 - -
2016-11-02T01:47:52.835Z   200      19780 http://www.datatang.com/data/list/r020-p4487 LLL http://www.datatang.com/data/list/r020-p4490 text/html #006 20161102014752704+122 sha1:E5COUNGGHLG2RETKQRH2KBFN3N2Y57KF - -
2016-11-02T01:47:55.952Z   200      19750 http://www.datatang.com/data/list/r020-p4486 LLL http://www.datatang.com/data/list/r020-p4490 text/html #006 20161102014755837+104 sha1:XUKYLS4S3AIOHSUYFCP6J76MDXFVJUMR - -
2016-11-02T01:47:59.129Z   200      20075 http://www.datatang.com/data/list/r020-p4485 LLL http://www.datatang.com/data/list/r020-p4490 text/html #006 20161102014758952+136 sha1:K2ZOEIRQXV4KPS5XHMSFINW7G7VHX5SD - -
2016-11-02T01:48:02.365Z   200      30138 http://www.datatang.com/data/556 LLL http://www.datatang.com/data/list/r020-p4490 text/html #006 20161102014802131+200 sha1:V6QMFOLTN7QEPR3CTGTIINTKJTYTFE3C - -
2016-11-02T01:48:05.488Z   200      30975 http://www.datatang.com/data/557 LLL http://www.datatang.com/data/list/r020-p4490 text/html #006 20161102014805368+94 sha1:HVYLAVBPDZRBZKCHBJNM4FQNOOGD7QSM - -
2016-11-02T01:48:08.667Z   200      30467 http://www.datatang.com/data/558 LLL http://www.datatang.com/data/list/r020-p4490 text/html #006 20161102014808490+168 sha1:AX5MVJQHSIXSDZZYXOQT7D7HBY6NSU5D - -
2016-11-02T01:48:12.003Z   200      31585 http://www.datatang.com/data/1212 LLL http://www.datatang.com/data/list/r020-p4490 text/html #006 20161102014811670+262 sha1:XDE2GC574HFYV7TAOXF65CBWE7LSZLIP - -
2016-11-02T01:48:15.190Z   200      30925 http://www.datatang.com/data/1213 LLL http://www.datatang.com/data/list/r020-p4490 text/html #006 20161102014815004+175 sha1:FIFZ5NBWT3YCUN4CWMFPNM2C6AQTKQCF - -
2016-11-02T01:48:18.359Z   200      29433 http://www.datatang.com/data/1210 LLL http://www.datatang.com/data/list/r020-p4490 text/html #006 20161102014818191+158 sha1:DRRS6ODHTPFDUSNLIGTULBYW5CUJGCJO - -
2016-11-02T01:48:21.603Z   200      28149 http://www.datatang.com/data/1211 LLL http://www.datatang.com/data/list/r020-p4490 text/html #006 20161102014821360+234 sha1:6YB4GZBYSH3B3Z6AP7SVOAY46SGFE2KH - -
2016-11-02T01:48:24.791Z   200      28862 http://www.datatang.com/data/1209 LLL http://www.datatang.com/data/list/r020-p4490 text/html #006 20161102014824604+177 sha1:SP2Y5GUC3ON4KMS43IEXJYVB6UTUZZMZ - -
2016-11-02T01:48:27.986Z   200      28609 http://www.datatang.com/data/1207 LLL http://www.datatang.com/data/list/r020-p4490 text/html #006 20161102014827794+160 sha1:LCV2NIQTE6TE3LRQFUMMRYLXERKUZWCD - -
2016-11-02T01:48:31.110Z   200      28829 http://www.datatang.com/data/1208 LLL http://www.datatang.com/data/list/r020-p4490 text/html #006 20161102014830987+98 sha1:OJ76F6RPAGCI6S7DCYVLVI365WXONIZC - -
2016-11-02T01:48:34.336Z   200      29480 http://www.datatang.com/data/559 LLL http://www.datatang.com/data/list/r020-p4491 text/html #006 20161102014834113+189 sha1:6CEFILBDPXWTTERC5R5T4O62IAQFJSJU - -
2016-11-02T01:48:37.561Z   200      31325 http://www.datatang.com/data/555 LLL http://www.datatang.com/data/list/r020-p4491 text/html #006 20161102014837340+191 sha1:CMW3KFHADNVEUOWZQIYADODKTWWK3P2Q - -
2016-11-02T01:48:40.755Z   200      30995 http://www.datatang.com/data/554 LLL http://www.datatang.com/data/list/r020-p4491 text/html #006 20161102014840562+183 sha1:6G3ZAMBTZX6EFMZJTZ2LXF3FQD5OZ6OO - -
2016-11-02T01:48:43.940Z   200      32929 http://www.datatang.com/data/552 LLL http://www.datatang.com/data/list/r020-p4491 text/html #006 20161102014843757+164 sha1:VD2N64UROBAUVRSYYI3O3PZF7MMGJY2X - -
2016-11-02T01:48:47.218Z   200      30994 http://www.datatang.com/data/551 LLL http://www.datatang.com/data/list/r020-p4491 text/html #006 20161102014846941+266 sha1:U6QCPF3Z4G6G3AAT2BNXLYX2IMFVFERN - -
2016-11-02T01:48:50.398Z   200      30592 http://www.datatang.com/data/564 LLL http://www.datatang.com/data/list/r020-p4491 text/html #006 20161102014850219+168 sha1:3XHPN3SNTRPUYD7TR667VGGSRHRXWEQ7 - -
2016-11-02T01:48:53.581Z   200      28324 http://www.datatang.com/data/563 LLL http://www.datatang.com/data/list/r020-p4491 text/html #006 20161102014853400+171 sha1:LEV6MO2MC6FHCRLJT55EI63C4QNI7IXZ - -
2016-11-02T01:48:56.792Z   200      30545 http://www.datatang.com/data/566 LLL http://www.datatang.com/data/list/r020-p4491 text/html #006 20161102014856582+179 sha1:WAQCI43JR2ZAC7M3XZZVJLXDOGTJYAP7 - -
2016-11-02T01:49:00.005Z   200      29602 http://www.datatang.com/data/565 LLL http://www.datatang.com/data/list/r020-p4491 text/html #006 20161102014859793+177 sha1:ZBRGNNZ3LF7SUCU5WW2YN4Q42VB7SP3G - -
2016-11-02T01:49:03.220Z   200      31235 http://www.datatang.com/data/560 LLL http://www.datatang.com/data/list/r020-p4491 text/html #006 20161102014903007+189 sha1:OBIN6Q4QF37RULCVOB53VUYKZDVVEH3R - -
2016-11-02T01:49:06.468Z   200      30088 http://www.datatang.com/data/545 LLL http://www.datatang.com/data/list/r020-p4492 text/html #006 20161102014906223+211 sha1:DAQQGXO52Q4TLR6QSBIBIESDHXAM7ZQN - -
2016-11-02T01:49:09.655Z   200      31523 http://www.datatang.com/data/546 LLL http://www.datatang.com/data/list/r020-p4492 text/html #006 20161102014909470+161 sha1:OTN3HBAR4LEOVX4TTEM74RQWASQORF24 - -
2016-11-02T01:49:13.057Z   200      30837 http://www.datatang.com/data/547 LLL http://www.datatang.com/data/list/r020-p4492 text/html #006 20161102014912658+389 sha1:DMZ5ZFGIJC3RCITZ3BIVBR2MM5H2GSGM - -
2016-11-02T01:49:16.353Z   200      29809 http://www.datatang.com/data/548 LLL http://www.datatang.com/data/list/r020-p4492 text/html #006 20161102014916059+235 sha1:2P6DJWLJAUW4BZKCKVI2DTJTL2QL6RIB - -
2016-11-02T01:49:19.525Z   200      30390 http://www.datatang.com/data/550 LLL http://www.datatang.com/data/list/r020-p4492 text/html #006 20161102014919354+161 sha1:YB4PM7KC6VO5CCNWWX57ZS54JNX7HQF5 - -
2016-11-02T01:49:22.789Z   200      31967 http://www.datatang.com/data/562 LLL http://www.datatang.com/data/list/r020-p4492 text/html #006 20161102014922527+240 sha1:J5HBUNLKH7CVLIKCG4WBIWFTSY5P5KCW - -
2016-11-02T01:49:25.985Z   200      28950 http://www.datatang.com/data/561 LLL http://www.datatang.com/data/list/r020-p4492 text/html #006 20161102014925790+185 sha1:EQDLIAH4GPMQZFQQX5OFYNAMFXVCIRV2 - -
2016-11-02T01:49:29.240Z   200      28562 http://www.datatang.com/data/1201 LLL http://www.datatang.com/data/list/r020-p4492 text/html #006 20161102014928986+231 sha1:ENR56LXBXIKWPY7YEZA4ZFSG4HUIEUTR - -
2016-11-02T01:49:32.450Z   200      28161 http://www.datatang.com/data/1202 LLL http://www.datatang.com/data/list/r020-p4492 text/html #006 20161102014932243+174 sha1:LU26MPI5YKLRPIH2EY5G4R7IYMS3VPSM - -
2016-11-02T01:49:35.632Z   200      28050 http://www.datatang.com/data/1206 LLL http://www.datatang.com/data/list/r020-p4492 text/html #006 20161102014935452+169 sha1:P34NVLSIAKRWSNCORZB2LLJ7RXYMNNDT - -
2016-11-02T01:49:38.969Z   200      26904 http://www.datatang.com/data/20472 LLL http://www.datatang.com/data/47125 text/html #006 20161102014938633+306 sha1:PAZZGVQSIU7YSWGWXOYQUHUJLP4MMO43 - -
2016-11-02T01:49:42.352Z   200      26352 http://www.datatang.com/data/42441 LLL http://www.datatang.com/data/47168 text/html #006 20161102014941971+371 sha1:Z7X75TVMQQSRYKT2O3DW5H4RWOL3A7UN - -
2016-11-02T01:49:45.654Z   200      26170 http://www.datatang.com/data/24720 LLL http://www.datatang.com/data/47168 text/html #006 20161102014945355+278 sha1:N5YKDLP3WGT2RQ2MWANKZAM2KZE4DYOG - -
2016-11-02T01:49:49.083Z   200      26683 http://www.datatang.com/data/45725 LLL http://www.datatang.com/data/47168 text/html #006 20161102014948656+399 sha1:S3FGMCIH6ITQLZZJFNVGT6XYDMF7HOYU - -
2016-11-02T01:49:52.741Z   200      26549 http://www.datatang.com/data/45487 LLL http://www.datatang.com/data/47168 text/html #006 20161102014952085+646 sha1:QAD4ZVS6STSVAIYU5B4XEBCIOKMS3XE4 - -
2016-11-02T01:49:57.106Z   200      26110 http://www.datatang.com/data/44732 LLL http://www.datatang.com/data/47168 text/html #006 20161102014956743+352 sha1:F443BP7BPXM5TSZ35EYLLMFGYP2Q6NDB - -
2016-11-02T01:50:00.472Z   200      26234 http://www.datatang.com/data/45717 LLL http://www.datatang.com/data/47168 text/html #006 20161102015000107+355 sha1:RUW35FUB5NSS6OME6B36W26US2YGEWGR - -
2016-11-02T01:50:03.654Z   200      25507 http://www.datatang.com/data/43898 LLL http://www.datatang.com/data/47156 text/html #006 20161102015003474+170 sha1:QJK7ZJGLVU4KBZTYBZDBY6K3TF3M7QWK - -
2016-11-02T01:50:06.863Z   200      24176 http://www.datatang.com/data/29206 LLL http://www.datatang.com/data/47156 text/html #006 20161102015006656+197 sha1:BX3P5MDTX4QK4BW3WTZEJG22Q6R3YM3E - -
2016-11-02T01:50:10.253Z   200      26149 http://www.datatang.com/data/42873 LLL http://www.datatang.com/data/47180 text/html #006 20161102015009864+378 sha1:GYZRDXYPE3I2WMFFULGM54ZAEHXJIUPH - -
2016-11-02T01:50:13.932Z   200      26116 http://www.datatang.com/data/42866 LLL http://www.datatang.com/data/47180 text/html #006 20161102015013255+665 sha1:XVC6Q6GJGGRGCCARMMQO47CLGSHIRS37 - -
2016-11-02T01:50:18.558Z   200      26083 http://www.datatang.com/data/42504 LLL http://www.datatang.com/data/47180 text/html #006 20161102015017933+615 sha1:TZBAXQUVMX3FZHXFWS6IQZL4JYFWSRNA - -
2016-11-02T01:50:22.684Z   200      26278 http://www.datatang.com/data/43592 LLL http://www.datatang.com/data/47180 text/html #023 20161102015021952+713 sha1:J5KFOENFIACNHMEEALBYPP473KTJ3IYK - -
2016-11-02T01:50:26.996Z   200      26276 http://www.datatang.com/data/43591 LLL http://www.datatang.com/data/47180 text/html #006 20161102015026564+400 sha1:G5UTK2OWUX4JHINDIRTFS5OC2GSEDRYM - -
2016-11-02T01:50:30.648Z   200      26150 http://www.datatang.com/data/42887 LLL http://www.datatang.com/data/47180 text/html #006 20161102015029998+639 sha1:XT3TEI7M2STMSLPNBQETNZH37H34GINY - -
2016-11-02T01:50:34.598Z   200      26165 http://www.datatang.com/data/42899 LLL http://www.datatang.com/data/47180 text/html #024 20161102015033959+622 sha1:SIVC7EKSCMZ7GAH5EQGNVFEG3KFM77T4 - -
2016-11-02T01:50:38.076Z   200      26151 http://www.datatang.com/data/42902 LLL http://www.datatang.com/data/47180 text/html #019 20161102015037961+86 sha1:5X4TVTDJYL2FVWB7QCBS6OAQMTUIGCSW - -
2016-11-02T01:50:41.517Z   200      26160 http://www.datatang.com/data/42904 LLL http://www.datatang.com/data/47180 text/html #019 20161102015041079+408 sha1:LOBHUJAHVFH6L4F3G45ZOMITVLFHV7KY - -
2016-11-02T01:50:45.171Z   200      26158 http://www.datatang.com/data/42895 LLL http://www.datatang.com/data/47180 text/html #019 20161102015044518+640 sha1:3SML35I5SGM5ZPY3B75RWY2BBDYRYSYB - -
2016-11-02T01:50:49.185Z   200      31613 http://www.datatang.com/data/2029 LLL http://www.datatang.com/data/47174 text/html #024 20161102015048605+552 sha1:Q6C5OG5HSAWF6A5EXANHOFDVQWUNA6XU - -
2016-11-02T01:50:52.548Z   200      27557 http://www.datatang.com/data/43788 LLL http://www.datatang.com/data/46990 text/html #024 20161102015052186+351 sha1:XCKEDFGJHMAYIQMFHVDWCPOCVQB4PUSO - -
2016-11-02T01:50:55.816Z   200      26157 http://www.datatang.com/data/43629 LLL http://www.datatang.com/data/46990 text/html #024 20161102015055550+232 sha1:UUNN2IZHLQKWQNNLD5G2U23D3I47IDBU - -
2016-11-02T01:50:59.135Z   200      26009 http://www.datatang.com/data/39412 LLL http://www.datatang.com/data/46990 text/html #024 20161102015058819+306 sha1:NUNUDPMKJESAST7YX6FI5GW6BUM2ZEYI - -
2016-11-02T01:51:02.473Z   200      27470 http://www.datatang.com/data/44185 LLL http://www.datatang.com/data/46990 text/html #024 20161102015102137+326 sha1:RSE6337NLAWK2CVVP2X7C2YJQ3VSZUXP - -
2016-11-02T01:51:05.818Z   200      27482 http://www.datatang.com/data/44186 LLL http://www.datatang.com/data/46990 text/html #024 20161102015105476+309 sha1:C35CKFJ72NWTDGP3LPKZ6CW576MSJLCZ - -
2016-11-02T01:51:09.158Z   200      27222 http://www.datatang.com/data/44187 LLL http://www.datatang.com/data/46990 text/html #024 20161102015108819+319 sha1:G5GDZG75HAKTEJSAATQ3VYIZ5CAF64UM - -
2016-11-02T01:51:12.523Z   200      27269 http://www.datatang.com/data/44188 LLL http://www.datatang.com/data/46990 text/html #024 20161102015112159+343 sha1:W4JRZTBBYEXJ7N7KYE2YKESMW3J3FYAX - -
2016-11-02T01:51:15.851Z   200      27531 http://www.datatang.com/data/43929 LLL http://www.datatang.com/data/46990 text/html #024 20161102015115524+317 sha1:5642FKWYSXRKFFEYKIKE6SY7CDGNUR5O - -
2016-11-02T01:51:19.198Z   200      27525 http://www.datatang.com/data/43790 LLL http://www.datatang.com/data/46990 text/html #024 20161102015118853+315 sha1:CB4UFRNXMFTYDD3VYCIJ2UJZOEEIPZCE - -
2016-11-02T01:51:22.461Z   200      25918 http://www.datatang.com/data/13697 LLL http://www.datatang.com/data/47056 text/html #024 20161102015122202+227 sha1:BQRZCZ4U7AHLNVPA4GCAEJWV7PRDIX4Y - -
2016-11-02T01:51:25.700Z   200      28864 http://www.datatang.com/data/45729 LLL http://www.datatang.com/data/47056 text/html #024 20161102015125464+226 sha1:HP3JS54BCI5H2EBQ4AO36PLOAQOXKBNV - -
2016-11-02T01:51:29.104Z   200      31177 http://www.datatang.com/data/24511 LLL http://www.datatang.com/data/47005 text/html #024 20161102015128701+395 sha1:37CICS2W3M4TLMRV4BXQHEZAEKIJV2BK - -
2016-11-02T01:51:32.532Z   200      29721 http://www.datatang.com/data/29529 LLL http://www.datatang.com/data/47005 text/html #024 20161102015132105+410 sha1:3VZJ2HZGQZEH45M4SD5PRUVVLUJWMQPA - -
2016-11-02T01:51:35.841Z   200      26217 http://www.datatang.com/data/34059 LLL http://www.datatang.com/data/47005 text/html #024 20161102015135533+282 sha1:Z5XH2PKDIZB32UUP5FMUPYYSNGTTTO4W - -
2016-11-02T01:51:39.238Z   200      32930 http://www.datatang.com/data/24368 LLL http://www.datatang.com/data/47005 text/html #024 20161102015138844+362 sha1:UKJMHUHX4KXFDQMLOE5BTO7N2XDW2HEB - -
2016-11-02T01:51:42.518Z   200      30072 http://www.datatang.com/data/30789 LLL http://www.datatang.com/data/47005 text/html #024 20161102015142242+265 sha1:UZYDPIOA3DTL6U3WTH7MKUFKT2FIZIDX - -
2016-11-02T01:51:45.816Z   200      32490 http://www.datatang.com/data/24186 LLL http://www.datatang.com/data/47005 text/html #024 20161102015145518+266 sha1:T5PV4KAGQYKMFECMRL26KRFHMENFEQWZ - -
2016-11-02T01:51:49.092Z   200      27923 http://www.datatang.com/data/22484 LLL http://www.datatang.com/data/47005 text/html #024 20161102015148820+262 sha1:L2SSQVBHNTTMOAGWM5GT3XHBRD7XA2NP - -
2016-11-02T01:51:52.450Z   200      30816 http://www.datatang.com/data/24298 LLL http://www.datatang.com/data/47005 text/html #024 20161102015152093+345 sha1:JU7TNA5IWSEXTMBNPCRY6DMTV3K36WPN - -
2016-11-02T01:51:55.737Z   200      29640 http://www.datatang.com/data/18844 LLL http://www.datatang.com/data/47005 text/html #024 20161102015155452+270 sha1:AAXWQT2JVTHTN3IIS7CEQY434QIX6NUY - -
2016-11-02T01:51:59.051Z   200      26271 http://www.datatang.com/data/34060 LLL http://www.datatang.com/data/47005 text/html #023 20161102015158738+297 sha1:CV2C7R7OBAQTSRUO7IN3M33KNWQGMPCV - -
2016-11-02T01:52:02.133Z   200      25025 http://www.datatang.com/data/44120 LLL http://www.datatang.com/data/47209 text/html #023 20161102015202052+70 sha1:TZOBBPNOMLMUEMCHPOYDMKK7YE4LPTFX - -
2016-11-02T01:52:05.425Z   200      25777 http://www.datatang.com/data/43751 LLL http://www.datatang.com/data/47190 text/html #023 20161102015205135+281 sha1:J66ZSFYIFH2NBQMHD3KS6IZWQNGASL5Y - -
2016-11-02T01:52:08.649Z   200      24229 http://www.datatang.com/data/44196 LLL http://www.datatang.com/data/47190 text/html #023 20161102015208427+196 sha1:M4RAYRO3EFG6NVRZADIAGY74APUQQEEO - -
2016-11-02T01:52:11.994Z   200      29234 http://www.datatang.com/data/20537 LLL http://www.datatang.com/data/47197 text/html #023 20161102015211651+336 sha1:RU3MU7MNRNTSC3FJ7KNGJP5ATJVUJE76 - -
2016-11-02T01:52:15.191Z   200      26001 http://www.datatang.com/data/10130 LLL http://www.datatang.com/data/47197 text/html #023 20161102015214997+183 sha1:ZOUG76JMQ32GE2LNKZV6CE7YHUTSUULW - -
2016-11-02T01:52:18.505Z   200      28752 http://www.datatang.com/data/25710 LLL http://www.datatang.com/data/47198 text/html #023 20161102015218193+277 sha1:UKVLXGNB3AEOT66Z4VYDKEQWNJVDFXPF - -
2016-11-02T01:52:21.829Z   200      28611 http://www.datatang.com/data/25718 LLL http://www.datatang.com/data/47198 text/html #023 20161102015221507+286 sha1:HIBIYZJWGSOIWFHNJQEOFVG4MHMSQSEM - -
2016-11-02T01:52:25.173Z   200      28656 http://www.datatang.com/data/25721 LLL http://www.datatang.com/data/47198 text/html #023 20161102015224831+332 sha1:5O63KY5UPKJA3Q7O7MYYOXNZVOSJOD6V - -
2016-11-02T01:52:28.472Z   200      28612 http://www.datatang.com/data/25720 LLL http://www.datatang.com/data/47198 text/html #023 20161102015228174+287 sha1:2B2QQC3NYMTXAC5D7VWQN3LM7UEYBPOI - -
2016-11-02T01:52:31.768Z   200      29325 http://www.datatang.com/data/29304 LLL http://www.datatang.com/data/47198 text/html #023 20161102015231473+283 sha1:HUFTUJ3ZZPUF5IU3Z3CA6JFVZ7GCI57V - -
2016-11-02T01:52:35.070Z   200      29212 http://www.datatang.com/data/29305 LLL http://www.datatang.com/data/47198 text/html #023 20161102015234769+290 sha1:ERAWLFRNJ3NWEWOP4GVYA3NPOMOVEPIU - -
2016-11-02T01:52:38.411Z   200      28601 http://www.datatang.com/data/25708 LLL http://www.datatang.com/data/47198 text/html #023 20161102015238073+329 sha1:43DNRFN3V6CD7TT6YPZMKJY3KEWYQ6QN - -
2016-11-02T01:52:41.786Z   200      28543 http://www.datatang.com/data/25709 LLL http://www.datatang.com/data/47198 text/html #023 20161102015241414+342 sha1:PATEW66L6YVJARJLBNSTFE6ORKQCAVKM - -
2016-11-02T01:52:45.090Z   200      28569 http://www.datatang.com/data/25704 LLL http://www.datatang.com/data/47198 text/html #023 20161102015244788+292 sha1:F7QJ67J4L6GPQ3CL7BGDP6UDT3GRINGU - -
2016-11-02T01:52:48.388Z   200      28593 http://www.datatang.com/data/25705 LLL http://www.datatang.com/data/47198 text/html #023 20161102015248092+287 sha1:XGHNJS7E3BE2CZFR224BGLEOWIERJRXO - -
2016-11-02T01:52:51.773Z   200      28593 http://www.datatang.com/data/43329 LLL http://www.datatang.com/data/47214 text/html #023 20161102015251389+360 sha1:2TPXTU3P5T732H6CPK6HJZKVJQV46UVS - -
2016-11-02T01:52:55.197Z   200      28448 http://www.datatang.com/data/43368 LLL http://www.datatang.com/data/47214 text/html #023 20161102015254774+384 sha1:ZCLAWSRUHVJRMJTF6WTWNVYLSIGXXTQY - -
2016-11-02T01:52:58.428Z   200      25248 http://www.datatang.com/data/46499 LLL http://www.datatang.com/data/47253 text/html #023 20161102015258200+220 sha1:RHIAYFQWALCOUGGDXZFARYP7U2BCEN64 - -
2016-11-02T01:53:01.655Z   200      24743 http://www.datatang.com/data/46040 LLL http://www.datatang.com/data/47253 text/html #023 20161102015301430+212 sha1:LG5AQQ3KY66JIZHGKILJ2NR64NSKTNXT - -
2016-11-02T01:53:04.885Z   200      24429 http://www.datatang.com/data/46423 LLL http://www.datatang.com/data/47253 text/html #023 20161102015304657+220 sha1:CJMWUTAVUXGMRUQZZMEEEXVEANSUCSDK - -
2016-11-02T01:53:08.184Z   200      28642 http://www.datatang.com/data/43922 LLL http://www.datatang.com/data/47264 text/html #023 20161102015307888+243 sha1:IXUNAYUXGZ3NIDAND7IRIU3UWHK5SPHW - -
2016-11-02T01:53:11.476Z   200      27582 http://www.datatang.com/data/43723 LLL http://www.datatang.com/data/47264 text/html #023 20161102015311186+263 sha1:7CSDMAZBXO6CKPFQHKIBGQHEEYQV2WWW - -
2016-11-02T01:53:14.599Z   200      29636 http://www.datatang.com/data/43724 LLL http://www.datatang.com/data/47264 text/html #023 20161102015314477+111 sha1:AJQDDON2C6MMAHQRUE3A7Y5W4J6NGTX4 - -
2016-11-02T01:53:17.990Z   200      24479 http://www.datatang.com/data/44010 LLL http://www.datatang.com/data/47261 text/html #023 20161102015317602+365 sha1:GP7QNFK2OIUOR7SKNBSADRRNV4XWWB4O - -
2016-11-02T01:53:21.293Z   200      24605 http://www.datatang.com/data/43920 LLL http://www.datatang.com/data/47261 text/html #023 20161102015320990+258 sha1:6KJXYQPYZKDWI2A662HE7PWBOXNZXTBF - -
2016-11-02T01:53:24.659Z   200      25613 http://www.datatang.com/data/29151 LLL http://www.datatang.com/data/46956 text/html #023 20161102015324296+340 sha1:R43WT2NHMBMMCYNDRWOWKULWQSIJKV3N - -
2016-11-02T01:53:27.755Z   200      25260 http://www.datatang.com/data/13317 LLL http://www.datatang.com/data/46956 text/html #023 20161102015327662+75 sha1:F6KNUCG3Q5KOGBANGKXXREHEMRIFZ7PX - -
2016-11-02T01:53:30.945Z   200      23966 http://www.datatang.com/data/39287 LLL http://www.datatang.com/data/46956 text/html #023 20161102015330757+177 sha1:V2VPFAYOCJRIZMAKFM6CC4HCS5MJQZSO - -
2016-11-02T01:53:34.281Z   200      30680 http://www.datatang.com/data/20046 LLL http://www.datatang.com/data/46959 text/html #023 20161102015333947+324 sha1:T27GZLM7DR7AT2LMV42ABP7C7ZIJLJPU - -
2016-11-02T01:53:37.604Z   200      35754 http://www.datatang.com/data/21406 LLL http://www.datatang.com/data/46959 text/html #023 20161102015337285+296 sha1:FBUXGZVGUIQAJKS2ESVZX63MFPA3GHHF - -
2016-11-02T01:53:40.925Z   200      36701 http://www.datatang.com/data/22068 LLL http://www.datatang.com/data/46959 text/html #023 20161102015340606+310 sha1:Q7HRC47F3ABS6US2UINZGHJQFZTWRCEZ - -
2016-11-02T01:53:44.289Z   200      29187 http://www.datatang.com/data/27995 LLL http://www.datatang.com/data/46959 text/html #023 20161102015343927+333 sha1:EWPXQV653RD3SZXAYGPD3SG2IMGQK5UZ - -
2016-11-02T01:53:47.684Z   200      27322 http://www.datatang.com/data/24404 LLL http://www.datatang.com/data/46959 text/html #023 20161102015347290+366 sha1:JPMCB2ZQFCIE4O267YS7WALV3AGLEBGC - -
2016-11-02T01:53:50.775Z   200      26038 http://www.datatang.com/data/46920 LLL http://www.datatang.com/data/list/r020-p11 text/html #023 20161102015350686+71 sha1:F7QOQQVN4NCK7BZU6M3ZGFOJHNM7XGMH - -
2016-11-02T01:53:53.877Z   200      26170 http://www.datatang.com/data/46922 LLL http://www.datatang.com/data/list/r020-p11 text/html #023 20161102015353777+89 sha1:MMV7HSXDMQ6NII5AQIEMPEW2W57DSJHD - -
2016-11-02T01:53:56.995Z   200      25122 http://www.datatang.com/data/46921 LLL http://www.datatang.com/data/list/r020-p11 text/html #023 20161102015356879+108 sha1:MQND5BME4JMQXBWWYC3MTUEKZN6YJ6UO - -
2016-11-02T01:54:00.185Z   200      21391 http://www.datatang.com/data/list/r020-p15 LLL http://www.datatang.com/data/list/r020-p11 text/html #023 20161102015359998+176 sha1:FEE5RHPJSPXDEDU3EMD2NX34ARXYRNTD - -
2016-11-02T01:54:03.360Z   200      27705 http://www.datatang.com/data/46918 LLL http://www.datatang.com/data/list/r020-p11 text/html #023 20161102015403188+140 sha1:GGUPR664CZLENHADDWQOQCDKONVZGT2J - -
2016-11-02T01:54:06.590Z   200      25177 http://www.datatang.com/data/46919 LLL http://www.datatang.com/data/list/r020-p11 text/html #023 20161102015406363+193 sha1:MBP65YYBYQAHDWUGCQ46CIXF7KVR4VZP - -
2016-11-02T01:54:09.966Z   200      24972 http://www.datatang.com/data/46916 LLL http://www.datatang.com/data/list/r020-p11 text/html #023 20161102015409592+361 sha1:ABCNGRI6TY7TUOCABGWOLU67TYSRBHUD - -
2016-11-02T01:54:13.168Z   302        155 http://www.datatang.com/data/46917 LLL http://www.datatang.com/data/list/r020-p11 text/html #023 20161102015412968+194 sha1:SV3ELDZNQPZZPLTBEI2C2UNTFGXAZWNN - -
2016-11-02T01:54:16.373Z   200      27449 http://www.datatang.com/data/46911 LLL http://www.datatang.com/data/list/r020-p11 text/html #023 20161102015416170+192 sha1:ZOU5GN2MQ3MWR5LWCG6ZASKQ5TH266K7 - -
2016-11-02T01:54:19.821Z   200      26742 http://www.datatang.com/data/46912 LLL http://www.datatang.com/data/list/r020-p11 text/html #023 20161102015419375+436 sha1:HOWSMKZI3FS5MNKKK3DZFTERCQ6IIILK - -
2016-11-02T01:54:23.210Z   200      26725 http://www.datatang.com/data/46913 LLL http://www.datatang.com/data/list/r020-p11 text/html #023 20161102015422823+359 sha1:V6T57FNCXYMMUACGULPJAL4WCCY36DX2 - -
2016-11-02T01:54:26.424Z   200      20549 http://www.datatang.com/data/list/r020-p16 LLL http://www.datatang.com/data/list/r020-p12 text/html #023 20161102015426212+194 sha1:KQM4XNSRPXQVNHTEEPQV2I4PAJ66H7RE - -
2016-11-02T01:54:29.532Z   200      24298 http://www.datatang.com/data/46909 LLL http://www.datatang.com/data/list/r020-p12 text/html #023 20161102015429426+83 sha1:QHHJDMIZZGBWP3EO2FKW7H4AGYWJKAFR - -
2016-11-02T01:54:32.885Z   200      26123 http://www.datatang.com/data/46908 LLL http://www.datatang.com/data/list/r020-p12 text/html #023 20161102015432536+340 sha1:2J7L5UEEJOPNKYWIO4IGLX56QLRT2JL4 - -
2016-11-02T01:54:36.246Z   200      25820 http://www.datatang.com/data/46907 LLL http://www.datatang.com/data/list/r020-p12 text/html #023 20161102015435886+338 sha1:L2BW4CTGWE2BOYXDSMMYIT7XO4ACGABF - -
2016-11-02T01:54:39.619Z   200      25777 http://www.datatang.com/data/46906 LLL http://www.datatang.com/data/list/r020-p12 text/html #023 20161102015439248+331 sha1:WYUX6OTDKWXS6O6V3FCXCXXQPSY35LMW - -
2016-11-02T01:54:43.035Z   200      26126 http://www.datatang.com/data/46905 LLL http://www.datatang.com/data/list/r020-p12 text/html #023 20161102015442621+396 sha1:H4T5KQNDMY3DSM4XL2IKLULV5GM4VRUR - -
2016-11-02T01:54:46.405Z   200      26141 http://www.datatang.com/data/46904 LLL http://www.datatang.com/data/list/r020-p12 text/html #023 20161102015446037+336 sha1:X72CMR2KTWQZ24KUACUFR4PKHCNLWF6Q - -
2016-11-02T01:54:49.770Z   200      26125 http://www.datatang.com/data/46903 LLL http://www.datatang.com/data/list/r020-p12 text/html #023 20161102015449407+353 sha1:YCXPLF3FC5RCF7RUQKBWPATKMRKML45H - -
2016-11-02T01:54:53.129Z   200      26121 http://www.datatang.com/data/46902 LLL http://www.datatang.com/data/list/r020-p12 text/html #023 20161102015452771+323 sha1:RVNC5KKU57DAR4VTFGVGGAPRDACWHSFH - -
2016-11-02T01:54:56.491Z   200      26121 http://www.datatang.com/data/46901 LLL http://www.datatang.com/data/list/r020-p12 text/html #023 20161102015456131+345 sha1:HISU3OVJVANGXS5GZRCK2PFPFA33DKOU - -
2016-11-02T01:54:59.762Z   200      29263 http://www.datatang.com/data/46910 LLL http://www.datatang.com/data/list/r020-p12 text/html #023 20161102015459493+260 sha1:USIF6EVZORT3RPO2MFIN6FEPWQTDRLX6 - -
2016-11-02T01:55:02.897Z   200      24968 http://www.datatang.com/data/13048 LLL http://www.datatang.com/data/46963 text/html #023 20161102015502763+111 sha1:OQHGTXHGYCMSHEKV4QBYLHJRLPBPY6K6 - -
2016-11-02T01:55:06.004Z   200      25915 http://www.datatang.com/data/40379 LLL http://www.datatang.com/data/46963 text/html #023 20161102015505898+81 sha1:JL4KCXYWZ4ONUSDUMQ333GLRCYWA6527 - -
2016-11-02T01:55:09.269Z   200      24542 http://www.datatang.com/data/44354 LLL http://www.datatang.com/data/46963 text/html #023 20161102015509007+230 sha1:PMRVAKV7PT7WPCXXVDAC724QUTGJJXX6 - -
2016-11-02T01:55:12.395Z   200      24693 http://www.datatang.com/data/12044 LLL http://www.datatang.com/data/46954 text/html #023 20161102015512271+93 sha1:JHS4OLSQT3PCRAHUCX5AI5CDRHWLQC7S - -
2016-11-02T01:55:15.659Z   200      25123 http://www.datatang.com/data/45713 LLL http://www.datatang.com/data/46954 text/html #023 20161102015515397+232 sha1:S77FYNYTTPDOTAAF4UNBACBOGCSTROUF - -
2016-11-02T01:55:18.883Z   200      25659 http://www.datatang.com/data/12036 LLL http://www.datatang.com/data/46954 text/html #023 20161102015518662+178 sha1:7BTC577JLSRJH6BOT7EM7DSZM522NJ3Z - -
2016-11-02T01:55:22.199Z   200      32928 http://www.datatang.com/data/46305 LLL http://www.datatang.com/data/46950 text/html #023 20161102015521885+303 sha1:ZTM7BS2KHVTFANXLHH4GQ2Q2UQTM7T6X - -
2016-11-02T01:55:25.272Z   200      32550 http://www.datatang.com/data/46611 LLL http://www.datatang.com/data/46950 text/html #023 20161102015525201+61 sha1:6NSBYACA27UKTOAWDBFSKM5UBFDGB2QE - -
2016-11-02T01:55:28.609Z   200      32623 http://www.datatang.com/data/46323 LLL http://www.datatang.com/data/46950 text/html #023 20161102015528274+298 sha1:CH42H73RASIKIJFCVTRUHBXJPNL6JMDA - -
2016-11-02T01:55:31.943Z   200      32611 http://www.datatang.com/data/46318 LLL http://www.datatang.com/data/46950 text/html #023 20161102015531612+321 sha1:C6K7OSFAVR4KYN4PS45OG5OVD4VGSEI4 - -
2016-11-02T01:55:35.275Z   200      32614 http://www.datatang.com/data/46316 LLL http://www.datatang.com/data/46950 text/html #023 20161102015534945+310 sha1:X5QTAWI4XHTYWOPJKN3YE7D2YM5JXH7C - -
2016-11-02T01:55:38.571Z   200      32606 http://www.datatang.com/data/46317 LLL http://www.datatang.com/data/46950 text/html #023 20161102015538276+286 sha1:34W6PBNTAORYSTPOTIYUP7PWOD3XAHVY - -
2016-11-02T01:55:41.937Z   200      32616 http://www.datatang.com/data/46315 LLL http://www.datatang.com/data/46950 text/html #023 20161102015541573+329 sha1:X6VDFKWTDJH6JFEIDDQGYPPUDSXR22ZN - -
2016-11-02T01:55:45.297Z   200      32594 http://www.datatang.com/data/46332 LLL http://www.datatang.com/data/46944 text/html #023 20161102015544940+305 sha1:GOF4WVC5MLIUETZT2DFEKSWP7576VZSF - -
2016-11-02T01:55:48.595Z   200      32619 http://www.datatang.com/data/46333 LLL http://www.datatang.com/data/46944 text/html #023 20161102015548298+288 sha1:D4V2NVZ3XR7HWRAKCZ6LTGEW3MN7C4J7 - -
2016-11-02T01:55:51.923Z   200      32601 http://www.datatang.com/data/46330 LLL http://www.datatang.com/data/46944 text/html #023 20161102015551595+312 sha1:G2U25JOXY7S5ELAQIH577VYYCQZL6IWR - -
2016-11-02T01:55:55.279Z   200      32594 http://www.datatang.com/data/46331 LLL http://www.datatang.com/data/46944 text/html #023 20161102015554926+343 sha1:2VRUPWC34CNV52ASNLFAEKYXDDDNQXWC - -
2016-11-02T01:55:58.641Z   200      32515 http://www.datatang.com/data/46610 LLL http://www.datatang.com/data/46944 text/html #023 20161102015558281+308 sha1:D4SYN5SOFMRKO75ACKU3KGATNZABUBTG - -
2016-11-02T01:56:01.970Z   200      32601 http://www.datatang.com/data/46327 LLL http://www.datatang.com/data/46944 text/html #023 20161102015601643+292 sha1:QKI6P3CTB4NS55KHJ4NSYSCZRLAKKD6N - -
2016-11-02T01:56:05.276Z   200      32601 http://www.datatang.com/data/46329 LLL http://www.datatang.com/data/46944 text/html #023 20161102015604973+294 sha1:AAXR4TBP42XONVKH2KAUYIEM3O4ZX3TF - -
2016-11-02T01:56:08.495Z   200      20787 http://www.datatang.com/data/list/r020-p17 LLL http://www.datatang.com/data/list/r020-p13 text/html #023 20161102015608280+181 sha1:KTBVU3YMNZQ24VJD5UZJY3JX5UTNI63U - -
2016-11-02T01:56:11.850Z   200      26126 http://www.datatang.com/data/46900 LLL http://www.datatang.com/data/list/r020-p13 text/html #023 20161102015611496+317 sha1:56V5ONA426ICIZ7VH5SETH7ODASG2ZKH - -
2016-11-02T01:56:14.990Z   200      27814 http://www.datatang.com/data/46899 LLL http://www.datatang.com/data/list/r020-p13 text/html #023 20161102015614853+116 sha1:VDF3VDO3RDDFNLM7IWN6G6YQMI2AILYS - -
2016-11-02T01:56:18.212Z   200      25910 http://www.datatang.com/data/46895 LLL http://www.datatang.com/data/list/r020-p13 text/html #023 20161102015617991+205 sha1:FC3I6E4LAE6TXWKEZIQANZEZPAKLD6ET - -
2016-11-02T01:56:21.461Z   200      25277 http://www.datatang.com/data/46896 LLL http://www.datatang.com/data/list/r020-p13 text/html #023 20161102015621214+239 sha1:WIN7TREVDHE2SCVKNLWVKHSU7FPY45KW - -
2016-11-02T01:56:24.651Z   200      26248 http://www.datatang.com/data/46897 LLL http://www.datatang.com/data/list/r020-p13 text/html #023 20161102015624463+132 sha1:YXYE6KLPMVSGRDB6VAEDOA7NHPQB23GA - -
2016-11-02T01:56:27.765Z   200      24894 http://www.datatang.com/data/46898 LLL http://www.datatang.com/data/list/r020-p13 text/html #023 20161102015627654+102 sha1:OWLWG3JG75C4FKI4AKNPFBZZUBYVG3YV - -
2016-11-02T01:56:30.887Z   200      24934 http://www.datatang.com/data/46892 LLL http://www.datatang.com/data/list/r020-p13 text/html #023 20161102015630766+108 sha1:CPXS7UVUVGF2GBIOWGXDZLTKYN2EGZPN - -
2016-11-02T01:56:34.007Z   200      25111 http://www.datatang.com/data/46891 LLL http://www.datatang.com/data/list/r020-p13 text/html #023 20161102015633887+104 sha1:FJ3MXOD2ZTJS3ITNO53E4KWM5WP7V5I2 - -
2016-11-02T01:56:37.136Z   200      25283 http://www.datatang.com/data/46894 LLL http://www.datatang.com/data/list/r020-p13 text/html #023 20161102015637009+118 sha1:DQI5UTHUHTHSBHBVWH747XKM4Q3QKV3R - -
2016-11-02T01:56:40.296Z   200      25081 http://www.datatang.com/data/46893 LLL http://www.datatang.com/data/list/r020-p13 text/html #025 20161102015640137+150 sha1:RP7OV3PC2PDRCJW3FPU22LM55CIEXAS6 - -
2016-11-02T01:56:43.551Z   200      27442 http://www.datatang.com/data/43884 LLL http://www.datatang.com/data/46989 text/html #025 20161102015643300+216 sha1:6VWPD7YWM7OAZJWURRGVV3PJ5HH7QTUA - -
2016-11-02T01:56:46.797Z   200      27502 http://www.datatang.com/data/43885 LLL http://www.datatang.com/data/46989 text/html #025 20161102015646553+209 sha1:VNJIFBVN7S3F5QAKDS74CBVSGZYETFIX - -
2016-11-02T01:56:50.034Z   200      27468 http://www.datatang.com/data/43886 LLL http://www.datatang.com/data/46989 text/html #025 20161102015649798+203 sha1:MZYEQZIYQJWOJCLS4UN65L57XYHFPJWE - -
2016-11-02T01:56:53.355Z   200      27452 http://www.datatang.com/data/43887 LLL http://www.datatang.com/data/46989 text/html #025 20161102015653035+311 sha1:GNA52EGDSYZ2KAKPXMEMST7MFZ5P5BSI - -
2016-11-02T01:56:56.699Z   200      32532 http://www.datatang.com/data/46340 LLL http://www.datatang.com/data/46986 text/html #025 20161102015656358+309 sha1:2Z766H6QWO7GUTSG46PHAJOZAD2H57TZ - -
2016-11-02T01:56:59.813Z   200      29472 http://www.datatang.com/data/13213 LLL http://www.datatang.com/data/46978 text/html #025 20161102015659700+103 sha1:HGLIATZRA6LHCMSYN3F3XPKX7MKF6T7Y - -
2016-11-02T01:57:03.087Z   200      29891 http://www.datatang.com/data/2790 LLL http://www.datatang.com/data/46978 text/html #025 20161102015702815+235 sha1:TJRA4MFDVM6XY4CNGJOHSCCCTB6CUZDE - -
2016-11-02T01:57:06.335Z   200      25096 http://www.datatang.com/data/45472 LLL http://www.datatang.com/data/46978 text/html #025 20161102015706090+226 sha1:ZCEJPC3WKBZIPN77DF7OK4MAMX465ZA4 - -
2016-11-02T01:57:09.604Z   200      25583 http://www.datatang.com/data/43729 LLL http://www.datatang.com/data/46978 text/html #025 20161102015709338+241 sha1:7UQS4TKD5DBQVQSFIFOY36K5ENNSRKYQ - -
2016-11-02T01:57:12.696Z   200      28033 http://www.datatang.com/data/45896 LLL http://www.datatang.com/data/46978 text/html #025 20161102015712605+81 sha1:KD6VKNEUHO5J5PXH64KMONPXPJ5TN3Z6 - -
2016-11-02T01:57:15.907Z   200      30582 http://www.datatang.com/data/13443 LLL http://www.datatang.com/data/46978 text/html #025 20161102015715697+169 sha1:NTLHDF7OE5WNVUQEYI5PLGCQXVX3XF3W - -
2016-11-02T01:57:19.078Z   302        155 http://www.datatang.com/data/11875 LLL http://www.datatang.com/data/46978 text/html #025 20161102015718910+158 sha1:S7VC26W73IKWDWK4UPGLKDQ5IJR7ZDMO - -
2016-11-02T01:57:22.376Z   200      30813 http://www.datatang.com/data/13003 LLL http://www.datatang.com/data/46978 text/html #025 20161102015722079+266 sha1:TSMQP33O2TEHODODCC4FDED67PCQMUIS - -
2016-11-02T01:57:25.666Z   200      25950 http://www.datatang.com/data/43630 LLL http://www.datatang.com/data/46979 text/html #025 20161102015725378+266 sha1:WGO7SYJMRB7NJSTGY2GQTYJHXZR7LKJN - -
2016-11-02T01:57:29.004Z   200      26843 http://www.datatang.com/data/15516 LLL http://www.datatang.com/data/46979 text/html #025 20161102015728668+291 sha1:W6AF5Q7IPQ4OJFVE4DMFGL5DUGGTQHEU - -
2016-11-02T01:57:32.423Z   200      27533 http://www.datatang.com/data/43731 LLL http://www.datatang.com/data/46979 text/html #025 20161102015732006+407 sha1:W4TXBM6FMOJ5AHZ6UMDTRJCMUPZKXMCZ - -
2016-11-02T01:57:35.496Z   200      24476 http://www.datatang.com/data/45067 LLL http://www.datatang.com/data/46974 text/html #025 20161102015735425+61 sha1:GWHMYTX4Y4C6HMM7ZSLYKMBFHTBD7TMG - -
2016-11-02T01:57:38.806Z   200      25376 http://www.datatang.com/data/43892 LLL http://www.datatang.com/data/46974 text/html #025 20161102015738498+278 sha1:MLH5TO22N6ONPACSIFOG47XJWAFKJA6L - -
2016-11-02T01:57:41.990Z   200      24759 http://www.datatang.com/data/6995 LLL http://www.datatang.com/data/46973 text/html #025 20161102015741809+141 sha1:LCKLGC6CNVOZRCU362JKWRLU45GMUSAD - -
2016-11-02T01:57:45.171Z   200      25443 http://www.datatang.com/data/12260 LLL http://www.datatang.com/data/46973 text/html #025 20161102015744993+169 sha1:WO2FQKFCYUUMA36JHKTHZYBGPGIPJO35 - -
2016-11-02T01:57:48.296Z   200      25306 http://www.datatang.com/data/12517 LLL http://www.datatang.com/data/46973 text/html #025 20161102015748174+111 sha1:LJW5LME3NPYFZPTXSJLMVFHD4KTOTBM6 - -
2016-11-02T01:57:51.463Z   200      25369 http://www.datatang.com/data/12514 LLL http://www.datatang.com/data/46973 text/html #025 20161102015751298+157 sha1:I7BE4WJFSPGH25S4AUNFAJ2NRTDHPG5J - -
2016-11-02T01:57:54.700Z   200      25082 http://www.datatang.com/data/12410 LLL http://www.datatang.com/data/46973 text/html #025 20161102015754466+196 sha1:6YGUZUNNIIEYTRNV5WGMG7BSSFZXBVKN - -
2016-11-02T01:57:57.899Z   200      24125 http://www.datatang.com/data/12288 LLL http://www.datatang.com/data/46973 text/html #025 20161102015757702+188 sha1:3ODBZVAXWOZ3S3BKG7QDKRRRUWYTEYPV - -
2016-11-02T01:58:01.088Z   200      27655 http://www.datatang.com/data/12500 LLL http://www.datatang.com/data/46972 text/html #025 20161102015800901+167 sha1:7PBZLNG77BFA72UKFCYJ3EGCFNQVZSVH - -
2016-11-02T01:58:04.281Z   200      24077 http://www.datatang.com/data/12258 LLL http://www.datatang.com/data/46972 text/html #025 20161102015804091+159 sha1:W3KNQXEKVBCO3AIW5P4WDB2Y455CYSEP - -
2016-11-02T01:58:07.531Z   200      27660 http://www.datatang.com/data/12491 LLL http://www.datatang.com/data/46972 text/html #025 20161102015807285+193 sha1:4O23CV6KBQOVB4RMB5ITGMENSVUFRTEG - -
2016-11-02T01:58:10.701Z   200      23863 http://www.datatang.com/data/44240 LLL http://www.datatang.com/data/46976 text/html #025 20161102015810532+161 sha1:MJKQ3ORFE2PUOKKE3E7PFANODLXAM7VP - -
2016-11-02T01:58:13.922Z   200      25315 http://www.datatang.com/data/44307 LLL http://www.datatang.com/data/46976 text/html #025 20161102015813703+209 sha1:7XDAUIQOSTL3FONA3IA26XE4MHHSNF54 - -
2016-11-02T01:58:17.083Z   200      23854 http://www.datatang.com/data/14556 LLL http://www.datatang.com/data/46969 text/html #025 20161102015816925+150 sha1:WIIPFHOWSB62QHRE7ZU2ILKVDEKVLD2B - -
[...]
2016-11-02T12:59:17.679Z   200      28905 http://www.datatang.com/data/27433 LLLLLLLLLLLL http://www.datatang.com/data/27454 text/html #003 20161102125917225+441 sha1:W5VNYBX2LOT3CG6F5RVXZRA3LAGO7RNX - -
2016-11-02T12:59:21.198Z   200      31190 http://www.datatang.com/data/27432 LLLLLLLLLLLL http://www.datatang.com/data/27454 text/html #003 20161102125920680+508 sha1:PABK4ECE4T74XGIOMQTUAYGM3XMU5X43 - -
2016-11-02T12:59:24.659Z   200      35877 http://www.datatang.com/data/27254 LLLLLLLLLLLL http://www.datatang.com/data/27263 text/html #003 20161102125924199+424 sha1:BNSQBJGLZUJQARCCBGKPE7ACEQ5W4IW3 - -
2016-11-02T12:59:28.195Z   200      37439 http://www.datatang.com/data/27439 LLLLLLLLLLLL http://www.datatang.com/data/27263 text/html #003 20161102125927660+478 sha1:PQ3WS4GJ42TD2FDOK6JQZP4WUKKXJ6AG - -
2016-11-02T12:59:31.327Z   200      25532 http://www.datatang.com/data/7113 LLLLLLLLLLLL http://www.datatang.com/data/7099 text/html #003 20161102125931198+104 sha1:JTNCGHL2OB53OIO6Z3Z63OB3PWROIHZO - -
2016-11-02T12:59:34.435Z   200      25571 http://www.datatang.com/data/7317 LLLLLLLLLLLL http://www.datatang.com/data/7297 text/html #003 20161102125934329+96 sha1:3TSNON2Q2QXXLZBOURQK634TWUHWLAWZ - -
2016-11-02T12:59:37.592Z   200      24920 http://www.datatang.com/data/7201 LLLLLLLLLLLL http://www.datatang.com/data/7333 text/html #003 20161102125937436+130 sha1:7AZVZYIP6PWJWOTRCCAHJB2FKQB64FOK - -
2016-11-02T12:59:40.838Z   200      25757 http://www.datatang.com/data/46370 LLLLLLLLLLLL http://www.datatang.com/data/list/r020-p47 text/html #003 20161102125940594+224 sha1:FSXU3BVKZNBWDOYBI5PUU275LR6OHEOQ - -
2016-11-02T12:59:44.078Z   200      28221 http://www.datatang.com/data/46371 LLLLLLLLLLLL http://www.datatang.com/data/list/r020-p47 text/html #024 20161102125943840+210 sha1:5RTNG6MCBHBY3ETGO5HYR7TEE4ZGT7XJ - -
2016-11-02T12:59:47.316Z   200      19785 http://www.datatang.com/data/list/r020-p51 LLLLLLLLLLLL http://www.datatang.com/data/list/r020-p47 text/html #024 20161102125947080+196 sha1:7JC6XFJJGCXBH2JK4EQ2YI4I6QJIOTJR - -
2016-11-02T12:59:50.688Z   200      25870 http://www.datatang.com/data/46363 LLLLLLLLLLLL http://www.datatang.com/data/list/r020-p47 text/html #024 20161102125950319+354 sha1:VIARTB6FFLDCHL6JBEALLFS7UIHVTC5M - -
2016-11-02T12:59:53.946Z   200      24965 http://www.datatang.com/data/46368 LLLLLLLLLLLL http://www.datatang.com/data/list/r020-p47 text/html #024 20161102125953689+196 sha1:KIXMNHQ7BESQQZOF6I32X24EMQFAEWJJ - -
2016-11-02T12:59:57.178Z   200      26043 http://www.datatang.com/data/46369 LLLLLLLLLLLL http://www.datatang.com/data/list/r020-p47 text/html #024 20161102125956948+211 sha1:3ZZMFJA46DVKSMEKWJBLP4E7BX2JXMDI - -
2016-11-02T13:00:00.359Z   200      25915 http://www.datatang.com/data/46355 LLLLLLLLLLLL http://www.datatang.com/data/list/r020-p47 text/html #024 20161102130000180+167 sha1:Y7Y7LOZOZ5YHW5JIPYDVPIT6QABYZGHU - -
2016-11-02T13:00:03.870Z   200      25747 http://www.datatang.com/data/46354 LLLLLLLLLLLL http://www.datatang.com/data/list/r020-p47 text/html #024 20161102130003360+498 sha1:I4OEBIRSVLMCJPOSQ73KKBNY4XNT335D - -
2016-11-02T13:00:07.133Z   200      27298 http://www.datatang.com/data/46352 LLLLLLLLLLLL http://www.datatang.com/data/list/r020-p47 text/html #024 20161102130006873+221 sha1:5MO4GHHWWOT3JOAIILORPIQZMPF2OGIR - -
2016-11-02T13:00:10.455Z   200      30342 http://www.datatang.com/data/46358 LLLLLLLLLLLL http://www.datatang.com/data/list/r020-p47 text/html #024 20161102130010135+309 sha1:KJSCXPA3UEG4PRM4N2LEVC3PYL34PSV6 - -
2016-11-02T13:00:13.777Z   200      27405 http://www.datatang.com/data/46357 LLLLLLLLLLLL http://www.datatang.com/data/list/r020-p47 text/html #024 20161102130013458+311 sha1:Z3TAITJRDCMAPPG74KN5WGU3EGQ5ZHHO - -
2016-11-02T13:00:17.023Z   200      29599 http://www.datatang.com/data/2794 LLLLLLLLLLLL http://www.datatang.com/data/46422 text/html #024 20161102130016778+234 sha1:2WH4R5OGTBCPMLM6VCMPM6K7HGR2C775 - -
2016-11-02T13:00:20.187Z   200      30675 http://www.datatang.com/data/28225 LLLLLLLLLLLL http://www.datatang.com/data/46422 text/html #024 20161102130020024+131 sha1:5FDVV4TEGTRLQWQGAKGE44C76DEIRCX6 - -
2016-11-02T13:00:23.317Z   200      30674 http://www.datatang.com/data/28224 LLLLLLLLLLLL http://www.datatang.com/data/46422 text/html #024 20161102130023188+116 sha1:KRJUYII3RDJDKDLLN52JPKGGF3RDKKVV - -
2016-11-02T13:00:26.463Z   200      30674 http://www.datatang.com/data/28223 LLLLLLLLLLLL http://www.datatang.com/data/46422 text/html #024 20161102130026319+123 sha1:LIYGANLVK2X47ODR63ENK4FTH6YA73EV - -
2016-11-02T13:00:29.609Z   200      24620 http://www.datatang.com/data/11121 LLLLLLLLLLLL http://www.datatang.com/data/46422 text/html #024 20161102130029464+114 sha1:J5NFAOOVXKFFDYD37BPWUFTPPD7A4BOB - -
2016-11-02T13:00:32.950Z   200      23964 http://www.datatang.com/data/17179 LLLLLLLLLLLL http://www.datatang.com/data/46434 text/html #024 20161102130032610+292 sha1:6DVV5IL7NELF6QCBHLVIQFFL7KW2FCGT - -
2016-11-02T13:00:36.260Z   200      25545 http://www.datatang.com/data/15226 LLLLLLLLLLLL http://www.datatang.com/data/13929 text/html #024 20161102130035951+299 sha1:7SI3QTUAM5COOLYF6Q63KMT6A3Y23KEL - -
2016-11-02T13:00:39.718Z   200      27223 http://www.datatang.com/data/24326 LLLLLLLLLLLL http://www.datatang.com/data/2235 text/html #024 20161102130039261+446 sha1:VYXU2FLRAQXXTM5ZDHA64R5FYB7NPEVW - -
2016-11-02T13:00:43.162Z   200      36299 http://www.datatang.com/data/21274 LLLLLLLLLLLL http://www.datatang.com/data/21283 text/html #024 20161102130042720+416 sha1:KD3C7KKHP4QZMC63EN6CUK62ACHQJIJY - -
2016-11-02T13:00:46.616Z   200      32791 http://www.datatang.com/data/28046 LLLLLLLLLLLL http://www.datatang.com/data/21283 text/html #024 20161102130046163+438 sha1:X6KRUSEI73BEHRTA42FSEEXZWOENYTDW - -
2016-11-02T13:00:50.041Z   200      32447 http://www.datatang.com/data/28045 LLLLLLLLLLLL http://www.datatang.com/data/21283 text/html #024 20161102130049617+410 sha1:4M436PW7GVMMTWWYNH4EB5SD6G4KYGHD - -
2016-11-02T13:00:53.484Z   200      40340 http://www.datatang.com/data/28049 LLLLLLLLLLLL http://www.datatang.com/data/21283 text/html #024 20161102130053043+402 sha1:GJMUXMZWVT56NJP3KF5GULY5IBIDHEXK - -
2016-11-02T13:00:56.944Z   200      40458 http://www.datatang.com/data/34443 LLLLLLLLLLLL http://www.datatang.com/data/21283 text/html #024 20161102130056486+446 sha1:RPHDJ2HLWIMK72MOUGNJ4TORHYVITRPJ - -
2016-11-02T13:01:00.112Z   200      32742 http://www.datatang.com/data/21300 LLLLLLLLLLLL http://www.datatang.com/data/21283 text/html #024 20161102130059945+120 sha1:CPIPMBK67YKSSYHSZ55LLLMCV5JS6BZI - -
2016-11-02T13:01:03.543Z   200      33333 http://www.datatang.com/data/21245 LLLLLLLLLLLL http://www.datatang.com/data/21283 text/html #024 20161102130103114+410 sha1:ALVDRLTDQOS7TQANXGEYOZQ63JHAH6NI - -
2016-11-02T13:01:07.024Z   200      38949 http://www.datatang.com/data/28038 LLLLLLLLLLLL http://www.datatang.com/data/21283 text/html #024 20161102130106546+461 sha1:4DMIEFHCW7XAAAJOWFVHL7R5ANPC564B - -
2016-11-02T13:01:10.446Z   200      40353 http://www.datatang.com/data/34442 LLLLLLLLLLLL http://www.datatang.com/data/21284 text/html #024 20161102130110025+407 sha1:EO6OFZGZKD6FQHIV76P7S7SQTGIYGD5M - -
2016-11-02T13:01:13.884Z   200      40165 http://www.datatang.com/data/28034 LLLLLLLLLLLL http://www.datatang.com/data/21284 text/html #024 20161102130113447+397 sha1:IO7EPZYCB7BUXH27YCP64BK7VBNU775P - -
2016-11-02T13:01:16.992Z   200      36371 http://www.datatang.com/data/28072 LLLLLLLLLLLL http://www.datatang.com/data/21284 text/html #024 20161102130116886+79 sha1:ZTRRNYNMKVSU4E3KXF66GPZA67TODZ4E - -
2016-11-02T13:01:20.310Z   200      28721 http://www.datatang.com/data/33548 LLLLLLLLLLLL http://www.datatang.com/data/35116 text/html #024 20161102130119994+302 sha1:MM3RTBSV5OOF7BD2KZP56S7XQIAQKW5R - -
2016-11-02T13:01:23.658Z   200      64023 http://www.datatang.com/data/34462 LLLLLLLLLLLL http://www.datatang.com/data/34463 text/html #024 20161102130123310+335 sha1:6JWPGYS2FBB3ZIZHUTAF476L6DF25SCB - -
2016-11-02T13:01:27.015Z   200      64423 http://www.datatang.com/data/34431 LLLLLLLLLLLL http://www.datatang.com/data/34463 text/html #024 20161102130126659+345 sha1:RVOFHTQKQXGMBV5OYGFFO5PSDT5NMJ2G - -
2016-11-02T13:01:30.445Z   200      32681 http://www.datatang.com/data/21305 LLLLLLLLLLLL http://www.datatang.com/data/24483 text/html #024 20161102130130018+417 sha1:LSHL74XWMCUG5SFWDLS65MPMQ7F6YW7G - -
2016-11-02T13:01:33.808Z   200      40691 http://www.datatang.com/data/24481 LLLLLLLLLLLL http://www.datatang.com/data/24483 text/html #024 20161102130133446+325 sha1:T5LX5ZYHD7EKXYPN6VXNCKZVB37D2L7V - -
2016-11-02T13:01:37.264Z   200      36940 http://www.datatang.com/data/21243 LLLLLLLLLLLL http://www.datatang.com/data/21296 text/html #024 20161102130136809+443 sha1:S6RTIKV6YSVX5Z2NNQZOOI6MH5RRKDXQ - -
2016-11-02T13:01:40.709Z   200      36692 http://www.datatang.com/data/21246 LLLLLLLLLLLL http://www.datatang.com/data/21296 text/html #024 20161102130140265+409 sha1:PF4VTCOQ2KCOJ4V226KG2YANADIVHPA6 - -
2016-11-02T13:01:43.844Z   200      36744 http://www.datatang.com/data/21280 LLLLLLLLLLLL http://www.datatang.com/data/21296 text/html #024 20161102130143710+106 sha1:G5CDCWV5VGKHMNLZ5RU3LBK5KOWOTCBP - -
2016-11-02T13:01:47.218Z   200      28746 http://www.datatang.com/data/33546 LLLLLLLLLLLL http://www.datatang.com/data/35057 text/html #024 20161102130146846+359 sha1:WO5LBJIFDS7ZNBTJXNTZMAUYBSQLFCND - -
2016-11-02T13:01:50.320Z   200      36950 http://www.datatang.com/data/21299 LLLLLLLLLLLL http://www.datatang.com/data/21292 text/html #024 20161102130150219+79 sha1:VVEPZNVRHDS4XLNPDEGPG5Q3Z4QIVTVQ - -
2016-11-02T13:01:53.441Z   200      36924 http://www.datatang.com/data/21298 LLLLLLLLLLLL http://www.datatang.com/data/21292 text/html #024 20161102130153321+79 sha1:AR53Y5F2EI7UYZ56AKKZMUZHENUN6UNZ - -
2016-11-02T13:01:56.877Z   200      27068 http://www.datatang.com/data/31224 LLLLLLLLLLLL http://www.datatang.com/data/32833 text/html #024 20161102130156442+414 sha1:X465A7PTCPPGMW2MJKQ5KMF7M2XFMG7Z - -
2016-11-02T13:02:00.291Z   200      27148 http://www.datatang.com/data/31234 LLLLLLLLLLLL http://www.datatang.com/data/32833 text/html #024 20161102130159879+375 sha1:NT47CEELWFDZ5L2WARVHNA75HZJU6R5D - -
2016-11-02T13:02:03.759Z   200      37063 http://www.datatang.com/data/21281 LLLLLLLLLLLL http://www.datatang.com/data/21288 text/html #024 20161102130203293+438 sha1:WRLLIMKHFIXN4MHSCOS7YD52SK7UDUAT - -
2016-11-02T13:02:07.273Z   200      32847 http://www.datatang.com/data/21308 LLLLLLLLLLLL http://www.datatang.com/data/21288 text/html #024 20161102130206761+500 sha1:JS72NM7G64D532VWVEHR2ZOWGCB3STV4 - -
2016-11-02T13:02:10.713Z   200      32766 http://www.datatang.com/data/21307 LLLLLLLLLLLL http://www.datatang.com/data/21288 text/html #024 20161102130210275+427 sha1:62YI3YJ3TYNQJEEEMSLL3ADCBOWUZAVW - -
2016-11-02T13:02:14.165Z   200      32611 http://www.datatang.com/data/21294 LLLLLLLLLLLL http://www.datatang.com/data/21288 text/html #024 20161102130213714+438 sha1:SE6NCZJSOPHDK44PSHLMFOZXT5GXOAWQ - -
2016-11-02T13:02:17.601Z   200      32532 http://www.datatang.com/data/21291 LLLLLLLLLLLL http://www.datatang.com/data/21288 text/html #024 20161102130217165+413 sha1:KTOJRPJJGJRXZGGJCZ7A7QBV6MBCRTBZ - -
2016-11-02T13:02:21.041Z   200      32725 http://www.datatang.com/data/21293 LLLLLLLLLLLL http://www.datatang.com/data/21288 text/html #024 20161102130220603+425 sha1:IUKIKP3FPQGZATRTJVOWEGUGVTGFSQVQ - -
2016-11-02T13:02:24.341Z   200      29806 http://www.datatang.com/data/31420 LLLLLLLLLLLL http://www.datatang.com/data/31426 text/html #024 20161102130224042+267 sha1:YBD7E6UMU5PQP4J5ZMDBJSAPMGWD74GW - -
2016-11-02T13:02:27.696Z   200      27477 http://www.datatang.com/data/26391 LLLLLLLLLLLL http://www.datatang.com/data/26393 text/html #024 20161102130227342+342 sha1:NQZ3B6ALMORLB6XDX7NEQA66PQ3MQZ7V - -
2016-11-02T13:02:31.063Z   200      27996 http://www.datatang.com/data/26392 LLLLLLLLLLLL http://www.datatang.com/data/26393 text/html #024 20161102130230697+350 sha1:NFGHXANFDTIXKCGWKZVKGVBEMQDISY5W - -
2016-11-02T13:02:34.381Z   200      28571 http://www.datatang.com/data/18428 LLLLLLLLLLLL http://www.datatang.com/data/31430 text/html #024 20161102130234064+284 sha1:UFMLY4LJL2B2LDY5UGMBZG55ODKT7BFG - -
2016-11-02T13:02:37.467Z   200      28557 http://www.datatang.com/data/18419 LLLLLLLLLLLL http://www.datatang.com/data/31430 text/html #024 20161102130237384+73 sha1:FO6NTLD54WBFNXHFXNP7B5E7FSPAPDKI - -
2016-11-02T13:02:40.868Z   200      27921 http://www.datatang.com/data/25408 LLLLLLLLLLLL http://www.datatang.com/data/33022 text/html #024 20161102130240469+365 sha1:RSXRKRVDRJS4EXNMST7242ZHGGW2MZT3 - -
2016-11-02T13:02:44.457Z   200      41692 http://www.datatang.com/data/21076 LLLLLLLLLLLL http://www.datatang.com/data/21127 text/html #024 20161102130243869+559 sha1:DSISMJEZKPD2YJBUASN7RWEVV3HCMJCD - -
2016-11-02T13:02:47.575Z   200      41165 http://www.datatang.com/data/21817 LLLLLLLLLLLL http://www.datatang.com/data/21127 text/html #024 20161102130247459+88 sha1:NTDENKL7ARLVWXJWEGTERVWL4VWMQFNX - -
2016-11-02T13:02:50.883Z   200      31578 http://www.datatang.com/data/19609 LLLLLLLLLLLL http://www.datatang.com/data/24082 text/html #024 20161102130250577+295 sha1:SQGEV2GVK5FFIANSTFVM3QUGNQN66F2E - -
2016-11-02T13:02:54.228Z   200      32760 http://www.datatang.com/data/24028 LLLLLLLLLLLL http://www.datatang.com/data/24082 text/html #016 20161102130253887+329 sha1:QJ522Q7JN27USVD6MWUZ7UBW5WGA5E4D - -
2016-11-02T13:02:57.555Z   200      30788 http://www.datatang.com/data/17655 LLLLLLLLLLLL http://www.datatang.com/data/17601 text/html #016 20161102130257229+313 sha1:43YEP5TAZOB336LJAVBNBBF5R6RM76CJ - -
2016-11-02T13:03:00.924Z   200      32494 http://www.datatang.com/data/22958 LLLLLLLLLLLL http://www.datatang.com/data/22949 text/html #016 20161102130300557+307 sha1:LPR2KPVJTCIPJ5TZFRBYYOXZZVAHQQ7F - -
2016-11-02T13:03:04.266Z   200      33857 http://www.datatang.com/data/19423 LLLLLLLLLLLL http://www.datatang.com/data/22949 text/html #016 20161102130303926+323 sha1:AOVRTVYRKWA2HSQMT5EHITIV2D2M4NIF - -
2016-11-02T13:03:07.628Z   200      33810 http://www.datatang.com/data/19397 LLLLLLLLLLLL http://www.datatang.com/data/22949 text/html #016 20161102130307267+329 sha1:BE4SN4IYGHWMMJ2XVK5U6QAJQEM7DXNI - -
2016-11-02T13:03:10.927Z   200      29934 http://www.datatang.com/data/22931 LLLLLLLLLLLL http://www.datatang.com/data/22949 text/html #016 20161102130310629+286 sha1:YNLGEBN7LPBEDTFZ5FDTYAEIS5GUMFJX - -
2016-11-02T13:03:14.298Z   200      33201 http://www.datatang.com/data/23041 LLLLLLLLLLLL http://www.datatang.com/data/22949 text/html #016 20161102130313929+357 sha1:QVGGDB7JX4DJFXUW67CDX4245ODUKNKC - -
2016-11-02T13:03:17.627Z   200      33501 http://www.datatang.com/data/19389 LLLLLLLLLLLL http://www.datatang.com/data/22949 text/html #016 20161102130317298+305 sha1:ECJ63CJX6N25UAX7264K6WW6XAOOZOJR - -
2016-11-02T13:03:20.915Z   200      33806 http://www.datatang.com/data/23009 LLLLLLLLLLLL http://www.datatang.com/data/22949 text/html #016 20161102130320628+277 sha1:5DFIMGACKJR7BDZNA74PRIVJJTQQSOHF - -
2016-11-02T13:03:24.255Z   200      30270 http://www.datatang.com/data/22899 LLLLLLLLLLLL http://www.datatang.com/data/22954 text/html #016 20161102130323917+315 sha1:CINDCKYSH4AO4NZOQYZREJRT5O4CP4S2 - -
2016-11-02T13:03:27.649Z   200      31913 http://www.datatang.com/data/22935 LLLLLLLLLLLL http://www.datatang.com/data/22954 text/html #016 20161102130327256+348 sha1:GL2IKSS4S6F7464M42KFMWW3FU66CV6K - -
2016-11-02T13:03:30.993Z   200      29992 http://www.datatang.com/data/22842 LLLLLLLLLLLL http://www.datatang.com/data/22951 text/html #016 20161102130330653+330 sha1:IMAUWXZENQDKJC3BXDUVHGPFJAYBXQIQ - -
2016-11-02T13:03:34.338Z   200      31643 http://www.datatang.com/data/22917 LLLLLLLLLLLL http://www.datatang.com/data/22951 text/html #016 20161102130333994+335 sha1:BEPKDNBQMWLDQRD7SZR5MALGG5LVFUK5 - -
2016-11-02T13:03:37.725Z   200      34367 http://www.datatang.com/data/22912 LLLLLLLLLLLL http://www.datatang.com/data/32994 text/html #016 20161102130337340+353 sha1:O4HUI2ELWVKEBYLYDMZJ5BHJETBENRBT - -
2016-11-02T13:03:41.135Z   200      34132 http://www.datatang.com/data/22910 LLLLLLLLLLLL http://www.datatang.com/data/32994 text/html #016 20161102130340727+366 sha1:P7PH4YWJNFQ6S2Y6DMWPCLSVU5ZNQ3IS - -
2016-11-02T13:03:44.517Z   200      32600 http://www.datatang.com/data/33006 LLLLLLLLLLLL http://www.datatang.com/data/32994 text/html #016 20161102130344136+355 sha1:LVMX35GS67BOHERB444DPSBNWJZRNRMD - -
2016-11-02T13:03:47.902Z   200      29864 http://www.datatang.com/data/32974 LLLLLLLLLLLL http://www.datatang.com/data/32994 text/html #016 20161102130347520+361 sha1:WE67K4DLKD4ZFO377KKYMM2BBMYVZFW7 - -
2016-11-02T13:03:51.259Z   200      32794 http://www.datatang.com/data/33838 LLLLLLLLLLLL http://www.datatang.com/data/33839 text/html #016 20161102130350903+338 sha1:SB6WGZVSK5YCT3Y73MMSK5FNFBF3WUZO - -
2016-11-02T13:03:54.609Z   200      28119 http://www.datatang.com/data/31346 LLLLLLLLLLLL http://www.datatang.com/data/25997 text/html #016 20161102130354261+336 sha1:B5JF2Q2UTSOP4VXNIWLZGBM4FFSK5GEC - -
2016-11-02T13:03:57.891Z   200      27908 http://www.datatang.com/data/20672 LLLLLLLLLLLL http://www.datatang.com/data/25742 text/html #016 20161102130357610+270 sha1:Q6M3RDC655CRH2OKV3VSS4CUTDO6ZCNS - -
2016-11-02T13:04:01.161Z   200      27524 http://www.datatang.com/data/29739 LLLLLLLLLLLL http://www.datatang.com/data/25742 text/html #016 20161102130400892+260 sha1:PLCNT6R3YCXQEXFSDTG5B6ALVWUCEABQ - -
2016-11-02T13:04:04.595Z   200      26237 http://www.datatang.com/data/17965 LLLLLLLLLLLL http://www.datatang.com/data/17947 text/html #016 20161102130404163+423 sha1:FEILSUR5DDG6FARWEJ32HYZQWQLIWYF6 - -
2016-11-02T13:04:07.875Z   200      30526 http://www.datatang.com/data/16605 LLLLLLLLLLLL http://www.datatang.com/data/17111 text/html #016 20161102130407596+263 sha1:R5RLVSMIFBXRGNIBBOJBEBAA3EJLKWN5 - -
2016-11-02T13:04:11.044Z   200      24497 http://www.datatang.com/data/14454 LLLLLLLLLLLL http://www.datatang.com/data/14098 text/html #016 20161102130410877+146 sha1:UHEAWBXCGESRJTR44SSB6VCXPKHTAP4Z - -
2016-11-02T13:04:14.228Z   200      25133 http://www.datatang.com/data/10838 LLLLLLLLLLLL http://www.datatang.com/data/10851 text/html #016 20161102130414045+169 sha1:GDTBU3IM6KABJXO6BD76F4DYHOG5R5WN - -
2016-11-02T13:04:17.472Z   200      26114 http://www.datatang.com/data/10889 LLLLLLLLLLLL http://www.datatang.com/data/46406 text/html #016 20161102130417229+220 sha1:XOSJDTZMEKONEOUSM3WBCXQ2UIFFAM6J - -
2016-11-02T13:04:20.676Z   200      21314 http://www.datatang.com/data/list/r020-p52 LLLLLLLLLLLL http://www.datatang.com/data/list/r020-p48 text/html #016 20161102130420473+184 sha1:W7VBL2OX646BAZHCGR3O6N4F4V7PX4JD - -
2016-11-02T13:04:23.784Z   200      25214 http://www.datatang.com/data/46350 LLLLLLLLLLLL http://www.datatang.com/data/list/r020-p48 text/html #016 20161102130423677+96 sha1:UXWM4LBLKFRYICRASKUQNQBZHNI5WTXQ - -
2016-11-02T13:04:26.918Z   200      25791 http://www.datatang.com/data/46351 LLLLLLLLLLLL http://www.datatang.com/data/list/r020-p48 text/html #016 20161102130426785+118 sha1:OS5Q2DYJQDCMGCHCQKWNTFLGOYWR65OL - -
2016-11-02T13:04:30.227Z   200      32396 http://www.datatang.com/data/46343 LLLLLLLLLLLL http://www.datatang.com/data/list/r020-p48 text/html #016 20161102130429920+298 sha1:AEN3WWCEQCK2P7NFM4UKQZ2R7NMRAWGG - -
2016-11-02T13:04:33.564Z   200      32389 http://www.datatang.com/data/46344 LLLLLLLLLLLL http://www.datatang.com/data/list/r020-p48 text/html #016 20161102130433228+288 sha1:S7Z3KUHXQFJ6RN67MLFSE3ADNUCB6ZRZ - -
2016-11-02T13:04:36.893Z   200      30524 http://www.datatang.com/data/46342 LLLLLLLLLLLL http://www.datatang.com/data/list/r020-p48 text/html #016 20161102130436566+315 sha1:OKC5BD5HMPWVSW2XDAMERQXTDHHLTZ4X - -
